
OS:Version,
  {6d70db27-33ee-4f27-b421-5fa119bfe5b2}, !- Handle
  3.6.1;                                  !- Version Identifier

OS:WeatherFile,
  {5e70b452-c7ff-4a33-8d9d-e5accea8cedd}, !- Handle
  Anderson Rgnl AP,                       !- City
  SC,                                     !- State Province Region
  USA,                                    !- Country
  TMY3,                                   !- Data Source
  723190,                                 !- WMO Number
  34.5,                                   !- Latitude {deg}
  -82.717,                                !- Longitude {deg}
  -5,                                     !- Time Zone {hr}
  232,                                    !- Elevation {m}
  C:/Users/ylou2/Desktop/resstock-3.1.0/national_baseline/run10/run/../../../weather/G4500070.epw, !- Url
  E409F2EB,                               !- Checksum
  ,                                       !- Start Date Actual Year
  Sunday;                                 !- Start Day of Week

OS:YearDescription,
  {0f722314-0c50-463d-83ba-fd50f357b308}, !- Handle
  2007,                                   !- Calendar Year
  ,                                       !- Day of Week for Start Day
  ;                                       !- Is Leap Year

OS:Site,
  {a6f38143-c59b-4241-a571-d185b42d04d4}, !- Handle
  Anderson Rgnl AP_SC_USA,                !- Name
  34.5,                                   !- Latitude {deg}
  -82.717,                                !- Longitude {deg}
  -5,                                     !- Time Zone {hr}
  232,                                    !- Elevation {m}
  Suburbs;                                !- Terrain

OS:RunPeriodControl:DaylightSavingTime,
  {5b6d8877-3592-4bf5-8856-361f7a120d6e}, !- Handle
  Mar 12,                                 !- Start Date
  Nov 5;                                  !- End Date

OS:Site:GroundTemperature:Shallow,
  {43153458-cac6-44a1-8d19-3daf178f7575}, !- Handle
  11.1617338121525,                       !- January Surface Ground Temperature {C}
  9.38079289730331,                       !- February Surface Ground Temperature {C}
  9.23816876200811,                       !- March Surface Ground Temperature {C}
  10.0833162257743,                       !- April Surface Ground Temperature {C}
  13.4761123396067,                       !- May Surface Ground Temperature {C}
  16.853103369841,                        !- June Surface Ground Temperature {C}
  19.7807741123051,                       !- July Surface Ground Temperature {C}
  21.6353815230617,                       !- August Surface Ground Temperature {C}
  21.7929406092399,                       !- September Surface Ground Temperature {C}
  20.2845291975516,                       !- October Surface Ground Temperature {C}
  17.431515777899,                        !- November Surface Ground Temperature {C}
  14.1581170777461;                       !- December Surface Ground Temperature {C}

OS:Site:GroundTemperature:Deep,
  {d8f87013-14f4-4ddc-b7d1-c427271098fb}, !- Handle
  15.3492694063927,                       !- January Deep Ground Temperature {C}
  15.3492694063927,                       !- February Deep Ground Temperature {C}
  15.3492694063927,                       !- March Deep Ground Temperature {C}
  15.3492694063927,                       !- April Deep Ground Temperature {C}
  15.3492694063927,                       !- May Deep Ground Temperature {C}
  15.3492694063927,                       !- June Deep Ground Temperature {C}
  15.3492694063927,                       !- July Deep Ground Temperature {C}
  15.3492694063927,                       !- August Deep Ground Temperature {C}
  15.3492694063927,                       !- September Deep Ground Temperature {C}
  15.3492694063927,                       !- October Deep Ground Temperature {C}
  15.3492694063927,                       !- November Deep Ground Temperature {C}
  15.3492694063927;                       !- December Deep Ground Temperature {C}

OS:SimulationControl,
  {b20a13c0-cd74-4b95-bfff-c72d25afcb95}, !- Handle
  ,                                       !- Do Zone Sizing Calculation
  ,                                       !- Do System Sizing Calculation
  ,                                       !- Do Plant Sizing Calculation
  No;                                     !- Run Simulation for Sizing Periods

OS:Timestep,
  {c8dccf6a-59a0-4094-bd22-501799c1bc01}, !- Handle
  1;                                      !- Number of Timesteps per Hour

OS:ShadowCalculation,
  {982a984f-b9f3-4323-90cf-d997c932ebac}, !- Handle
  PolygonClipping,                        !- Shading Calculation Method
  ,                                       !- Shading Calculation Update Frequency Method
  20,                                     !- Shading Calculation Update Frequency
  200,                                    !- Maximum Figures in Shadow Overlap Calculations
  ,                                       !- Polygon Clipping Algorithm
  512,                                    !- Pixel Counting Resolution
  DetailedSkyDiffuseModeling,             !- Sky Diffuse Modeling Algorithm
  No,                                     !- Output External Shading Calculation Results
  No,                                     !- Disable Self-Shading Within Shading Zone Groups
  No;                                     !- Disable Self-Shading From Shading Zone Groups to Other Zones

OS:SurfaceConvectionAlgorithm:Outside,
  {f5180330-4e5c-4366-83f5-711e5bb5cf25}, !- Handle
  DOE-2;                                  !- Algorithm

OS:SurfaceConvectionAlgorithm:Inside,
  {1169b5f2-739f-41f1-a027-5a81340f8574}, !- Handle
  TARP;                                   !- Algorithm

OS:ZoneCapacitanceMultiplier:ResearchSpecial,
  {d26337a6-8d6e-4248-9bdc-931cd5e5e63c}, !- Handle
  1,                                      !- Temperature Capacity Multiplier
  15,                                     !- Humidity Capacity Multiplier
  ;                                       !- Carbon Dioxide Capacity Multiplier

OS:ConvergenceLimits,
  {a59273a2-74bc-4c20-881d-be499d3e987a}, !- Handle
  0;                                      !- Minimum System Timestep {minutes}

OS:RunPeriod,
  {733f0562-6b66-46e5-b93a-fc10e4d7590a}, !- Handle
  Run Period 1,                           !- Name
  1,                                      !- Begin Month
  1,                                      !- Begin Day of Month
  12,                                     !- End Month
  31,                                     !- End Day of Month
  ,                                       !- Use Weather File Holidays and Special Days
  ,                                       !- Use Weather File Daylight Saving Period
  ,                                       !- Apply Weekend Holiday Rule
  ,                                       !- Use Weather File Rain Indicators
  ,                                       !- Use Weather File Snow Indicators
  ;                                       !- Number of Times Runperiod to be Repeated

OS:PerformancePrecisionTradeoffs,
  {8714a7fd-af81-4e70-b86b-901fc11fd759}, !- Handle
  ,                                       !- Use Coil Direct Solutions
  CarrollMRT;                             !- Zone Radiant Exchange Algorithm

OS:ThermalZone,
  {4ab935b8-69b1-43a5-b35f-ca14f617017f}, !- Handle
  living space,                           !- Name
  ,                                       !- Multiplier
  ,                                       !- Ceiling Height {m}
  384.656044105728,                       !- Volume {m3}
  ,                                       !- Floor Area {m2}
  ,                                       !- Zone Inside Convection Algorithm
  ,                                       !- Zone Outside Convection Algorithm
  ,                                       !- Zone Conditioning Equipment List Name
  {e6a75975-9048-4102-89b4-f60ddc4d293c}, !- Zone Air Inlet Port List
  {19c4ee03-07e0-4c42-954e-da07ce40360a}, !- Zone Air Exhaust Port List
  {1f30ec71-b759-4c18-9822-cd7d5e75435f}, !- Zone Air Node Name
  {b094ba24-8413-4ed3-9bad-b28c8995d2c6}, !- Zone Return Air Port List
  ,                                       !- Primary Daylighting Control Name
  ,                                       !- Fraction of Zone Controlled by Primary Daylighting Control
  ,                                       !- Secondary Daylighting Control Name
  ,                                       !- Fraction of Zone Controlled by Secondary Daylighting Control
  ,                                       !- Illuminance Map Name
  ,                                       !- Group Rendering Name
  {337d7c0c-edfa-447d-9470-96c163a7b644}, !- Thermostat Name
  No;                                     !- Use Ideal Air Loads

OS:Node,
  {e9897bdd-d15b-4f3b-911b-173756e3f939}, !- Handle
  Node 1,                                 !- Name
  {1f30ec71-b759-4c18-9822-cd7d5e75435f}, !- Inlet Port
  ;                                       !- Outlet Port

OS:Connection,
  {1f30ec71-b759-4c18-9822-cd7d5e75435f}, !- Handle
  {4ab935b8-69b1-43a5-b35f-ca14f617017f}, !- Source Object
  11,                                     !- Outlet Port
  {e9897bdd-d15b-4f3b-911b-173756e3f939}, !- Target Object
  2;                                      !- Inlet Port

OS:PortList,
  {e6a75975-9048-4102-89b4-f60ddc4d293c}, !- Handle
  {4ab935b8-69b1-43a5-b35f-ca14f617017f}, !- HVAC Component
  {239c0911-aa65-4ef3-b789-aeb8822cb5f1}; !- Port 1

OS:PortList,
  {19c4ee03-07e0-4c42-954e-da07ce40360a}, !- Handle
  {4ab935b8-69b1-43a5-b35f-ca14f617017f}; !- HVAC Component

OS:PortList,
  {b094ba24-8413-4ed3-9bad-b28c8995d2c6}, !- Handle
  {4ab935b8-69b1-43a5-b35f-ca14f617017f}, !- HVAC Component
  {6bec4b9b-e426-415c-8f6b-c3ffef79e9de}; !- Port 1

OS:Sizing:Zone,
  {50b41fb9-b270-45df-b395-6e570e480e48}, !- Handle
  {4ab935b8-69b1-43a5-b35f-ca14f617017f}, !- Zone or ZoneList Name
  SupplyAirTemperature,                   !- Zone Cooling Design Supply Air Temperature Input Method
  14,                                     !- Zone Cooling Design Supply Air Temperature {C}
  11.11,                                  !- Zone Cooling Design Supply Air Temperature Difference {deltaC}
  SupplyAirTemperature,                   !- Zone Heating Design Supply Air Temperature Input Method
  40,                                     !- Zone Heating Design Supply Air Temperature {C}
  11.11,                                  !- Zone Heating Design Supply Air Temperature Difference {deltaC}
  0.0085,                                 !- Zone Cooling Design Supply Air Humidity Ratio {kg-H2O/kg-air}
  0.008,                                  !- Zone Heating Design Supply Air Humidity Ratio {kg-H2O/kg-air}
  ,                                       !- Zone Heating Sizing Factor
  ,                                       !- Zone Cooling Sizing Factor
  DesignDay,                              !- Cooling Design Air Flow Method
  ,                                       !- Cooling Design Air Flow Rate {m3/s}
  ,                                       !- Cooling Minimum Air Flow per Zone Floor Area {m3/s-m2}
  ,                                       !- Cooling Minimum Air Flow {m3/s}
  ,                                       !- Cooling Minimum Air Flow Fraction
  DesignDay,                              !- Heating Design Air Flow Method
  ,                                       !- Heating Design Air Flow Rate {m3/s}
  ,                                       !- Heating Maximum Air Flow per Zone Floor Area {m3/s-m2}
  ,                                       !- Heating Maximum Air Flow {m3/s}
  ,                                       !- Heating Maximum Air Flow Fraction
  No,                                     !- Account for Dedicated Outdoor Air System
  NeutralSupplyAir,                       !- Dedicated Outdoor Air System Control Strategy
  autosize,                               !- Dedicated Outdoor Air Low Setpoint Temperature for Design {C}
  autosize,                               !- Dedicated Outdoor Air High Setpoint Temperature for Design {C}
  Sensible Load Only No Latent Load,      !- Zone Load Sizing Method
  HumidityRatioDifference,                !- Zone Latent Cooling Design Supply Air Humidity Ratio Input Method
  ,                                       !- Zone Dehumidification Design Supply Air Humidity Ratio {kgWater/kgDryAir}
  0.005,                                  !- Zone Cooling Design Supply Air Humidity Ratio Difference {kgWater/kgDryAir}
  HumidityRatioDifference,                !- Zone Latent Heating Design Supply Air Humidity Ratio Input Method
  ,                                       !- Zone Humidification Design Supply Air Humidity Ratio {kgWater/kgDryAir}
  0.005;                                  !- Zone Humidification Design Supply Air Humidity Ratio Difference {kgWater/kgDryAir}

OS:ZoneHVAC:EquipmentList,
  {310935ba-d959-43fe-9b59-4df4c9457551}, !- Handle
  Zone HVAC Equipment List 1,             !- Name
  {4ab935b8-69b1-43a5-b35f-ca14f617017f}, !- Thermal Zone
  ,                                       !- Load Distribution Scheme
  {7a596434-22df-486b-b1b2-921aed3a4ad9}, !- Zone Equipment 1
  1,                                      !- Zone Equipment Cooling Sequence 1
  1,                                      !- Zone Equipment Heating or No-Load Sequence 1
  {2d62d4cb-311d-4ad1-a750-6eb48e7026ef}, !- Zone Equipment Sequential Cooling Fraction Schedule Name 1
  {afae4af5-547b-416a-84e8-0dd4d6fec7cd}; !- Zone Equipment Sequential Heating Fraction Schedule Name 1

OS:Space,
  {9e2a5aac-d719-4b52-93a8-a17b57d5da7c}, !- Handle
  living space 1,                         !- Name
  ,                                       !- Space Type Name
  ,                                       !- Default Construction Set Name
  ,                                       !- Default Schedule Set Name
  ,                                       !- Direction of Relative North {deg}
  ,                                       !- X Origin {m}
  ,                                       !- Y Origin {m}
  ,                                       !- Z Origin {m}
  ,                                       !- Building Story Name
  {4ab935b8-69b1-43a5-b35f-ca14f617017f}; !- Thermal Zone Name

OS:Schedule:Ruleset,
  {897a8ea9-80b6-470d-88af-09c7d57962fb}, !- Handle
  heating setpoint,                       !- Name
  {24afe733-665d-42ea-b9f2-2258f88e00b8}, !- Schedule Type Limits Name
  {d6a3f9b5-84b0-4c11-8a6a-f1af36438daf}; !- Default Day Schedule Name

OS:Schedule:Day,
  {d6a3f9b5-84b0-4c11-8a6a-f1af36438daf}, !- Handle
  heating setpoint default day,           !- Name
  {24afe733-665d-42ea-b9f2-2258f88e00b8}, !- Schedule Type Limits Name
  ,                                       !- Interpolate to Timestep
  24,                                     !- Hour 1
  0,                                      !- Minute 1
  0;                                      !- Value Until Time 1

OS:Schedule:Rule,
  {dc149e24-00c9-4624-8b40-1c4bb2477ee9}, !- Handle
  heating setpoint allday ruleset1,       !- Name
  {897a8ea9-80b6-470d-88af-09c7d57962fb}, !- Schedule Ruleset Name
  0,                                      !- Rule Order
  {df712ebd-477e-415d-a00a-6cc653b13f94}, !- Day Schedule Name
  Yes,                                    !- Apply Sunday
  Yes,                                    !- Apply Monday
  Yes,                                    !- Apply Tuesday
  Yes,                                    !- Apply Wednesday
  Yes,                                    !- Apply Thursday
  Yes,                                    !- Apply Friday
  Yes,                                    !- Apply Saturday
  DateRange,                              !- Date Specification Type
  1,                                      !- Start Month
  1,                                      !- Start Day
  12,                                     !- End Month
  31;                                     !- End Day

OS:Schedule:Day,
  {df712ebd-477e-415d-a00a-6cc653b13f94}, !- Handle
  heating setpoint allday1,               !- Name
  {24afe733-665d-42ea-b9f2-2258f88e00b8}, !- Schedule Type Limits Name
  ,                                       !- Interpolate to Timestep
  4,                                      !- Hour 1
  0,                                      !- Minute 1
  19.4444444444444,                       !- Value Until Time 1
  19,                                     !- Hour 2
  0,                                      !- Minute 2
  21.1111111111111,                       !- Value Until Time 2
  24,                                     !- Hour 3
  0,                                      !- Minute 3
  19.4444444444444;                       !- Value Until Time 3

OS:Schedule:Ruleset,
  {7c51aa68-af2b-4921-8c41-26a0ed3a4944}, !- Handle
  cooling setpoint,                       !- Name
  {24afe733-665d-42ea-b9f2-2258f88e00b8}, !- Schedule Type Limits Name
  {98a9723f-396d-43ea-9565-8041b182f94c}; !- Default Day Schedule Name

OS:Schedule:Day,
  {98a9723f-396d-43ea-9565-8041b182f94c}, !- Handle
  cooling setpoint default day,           !- Name
  {24afe733-665d-42ea-b9f2-2258f88e00b8}, !- Schedule Type Limits Name
  ,                                       !- Interpolate to Timestep
  24,                                     !- Hour 1
  0,                                      !- Minute 1
  0;                                      !- Value Until Time 1

OS:Schedule:Rule,
  {c67e739e-8038-4ff8-9a25-fbb746768369}, !- Handle
  cooling setpoint allday ruleset1,       !- Name
  {7c51aa68-af2b-4921-8c41-26a0ed3a4944}, !- Schedule Ruleset Name
  0,                                      !- Rule Order
  {72a139a4-9e31-419a-81e1-69ca47296696}, !- Day Schedule Name
  Yes,                                    !- Apply Sunday
  Yes,                                    !- Apply Monday
  Yes,                                    !- Apply Tuesday
  Yes,                                    !- Apply Wednesday
  Yes,                                    !- Apply Thursday
  Yes,                                    !- Apply Friday
  Yes,                                    !- Apply Saturday
  DateRange,                              !- Date Specification Type
  1,                                      !- Start Month
  1,                                      !- Start Day
  12,                                     !- End Month
  31;                                     !- End Day

OS:Schedule:Day,
  {72a139a4-9e31-419a-81e1-69ca47296696}, !- Handle
  cooling setpoint allday1,               !- Name
  {24afe733-665d-42ea-b9f2-2258f88e00b8}, !- Schedule Type Limits Name
  ,                                       !- Interpolate to Timestep
  3,                                      !- Hour 1
  0,                                      !- Minute 1
  22.2222222222222,                       !- Value Until Time 1
  12,                                     !- Hour 2
  0,                                      !- Minute 2
  21.1111111111111,                       !- Value Until Time 2
  24,                                     !- Hour 3
  0,                                      !- Minute 3
  22.2222222222222;                       !- Value Until Time 3

OS:ThermostatSetpoint:DualSetpoint,
  {337d7c0c-edfa-447d-9470-96c163a7b644}, !- Handle
  living space temperature setpoint,      !- Name
  {897a8ea9-80b6-470d-88af-09c7d57962fb}, !- Heating Setpoint Temperature Schedule Name
  {7c51aa68-af2b-4921-8c41-26a0ed3a4944}; !- Cooling Setpoint Temperature Schedule Name

OS:ScheduleTypeLimits,
  {24afe733-665d-42ea-b9f2-2258f88e00b8}, !- Handle
  Temperature,                            !- Name
  ,                                       !- Lower Limit Value
  ,                                       !- Upper Limit Value
  Continuous,                             !- Numeric Type
  Temperature;                            !- Unit Type

OS:Surface,
  {50896540-b4af-487d-a223-c5e98473943e}, !- Handle
  Roof1,                                  !- Name
  RoofCeiling,                            !- Surface Type
  {9610fc27-d7c7-4bec-8e72-dda1c85f2aa8}, !- Construction Name
  {081b992e-44f3-43a9-a4ff-50bb7fd8d214}, !- Space Name
  Outdoors,                               !- Outside Boundary Condition
  ,                                       !- Outside Boundary Condition Object
  SunExposed,                             !- Sun Exposure
  WindExposed,                            !- Wind Exposure
  ,                                       !- View Factor to Ground
  ,                                       !- Number of Vertices
  47.7636329724777, 24.0215420891947, 2.7432, !- X,Y,Z Vertex 1 {m}
  38.679979301933, 24.0215422104535, 7.28502683527234, !- X,Y,Z Vertex 2 {m}
  38.6799791663615, 13.8657086647518, 7.28502683527234, !- X,Y,Z Vertex 3 {m}
  47.7636328369062, 13.865708543493, 2.7432; !- X,Y,Z Vertex 4 {m}

OS:AdditionalProperties,
  {232e1254-ef65-4bf9-9c5f-260d0e73584a}, !- Handle
  {50896540-b4af-487d-a223-c5e98473943e}, !- Object Name
  Length,                                 !- Feature Name 1
  Double,                                 !- Feature Data Type 1
  33.319663863850728,                     !- Feature Value 1
  Width,                                  !- Feature Name 2
  Double,                                 !- Feature Data Type 2
  33.319663863850728,                     !- Feature Value 2
  Azimuth,                                !- Feature Name 3
  Integer,                                !- Feature Data Type 3
  90,                                     !- Feature Value 3
  Tilt,                                   !- Feature Name 4
  Double,                                 !- Feature Data Type 4
  0.5,                                    !- Feature Value 4
  SurfaceType,                            !- Feature Name 5
  String,                                 !- Feature Data Type 5
  Roof;                                   !- Feature Value 5

OS:ThermalZone,
  {0ebb713d-0c1a-4a53-970b-3c77c288e9cb}, !- Handle
  attic - vented,                         !- Name
  ,                                       !- Multiplier
  ,                                       !- Ceiling Height {m}
  228.872875481565,                       !- Volume {m3}
  ,                                       !- Floor Area {m2}
  ,                                       !- Zone Inside Convection Algorithm
  ,                                       !- Zone Outside Convection Algorithm
  ,                                       !- Zone Conditioning Equipment List Name
  {10d8f8c5-7505-4b9c-b91a-8ece9ac179c2}, !- Zone Air Inlet Port List
  {07d3c31b-8374-44a1-84f8-22084abb88e3}, !- Zone Air Exhaust Port List
  {10ea1e8b-6f8b-40f9-b385-5b8fedb5e365}, !- Zone Air Node Name
  {a5e9e92a-1c5c-4303-8361-8d214a434505}, !- Zone Return Air Port List
  ,                                       !- Primary Daylighting Control Name
  ,                                       !- Fraction of Zone Controlled by Primary Daylighting Control
  ,                                       !- Secondary Daylighting Control Name
  ,                                       !- Fraction of Zone Controlled by Secondary Daylighting Control
  ,                                       !- Illuminance Map Name
  ,                                       !- Group Rendering Name
  ,                                       !- Thermostat Name
  No;                                     !- Use Ideal Air Loads

OS:Node,
  {d55c0788-b882-4676-b77f-9a1caac0dc57}, !- Handle
  Node 2,                                 !- Name
  {10ea1e8b-6f8b-40f9-b385-5b8fedb5e365}, !- Inlet Port
  ;                                       !- Outlet Port

OS:Connection,
  {10ea1e8b-6f8b-40f9-b385-5b8fedb5e365}, !- Handle
  {0ebb713d-0c1a-4a53-970b-3c77c288e9cb}, !- Source Object
  11,                                     !- Outlet Port
  {d55c0788-b882-4676-b77f-9a1caac0dc57}, !- Target Object
  2;                                      !- Inlet Port

OS:PortList,
  {10d8f8c5-7505-4b9c-b91a-8ece9ac179c2}, !- Handle
  {0ebb713d-0c1a-4a53-970b-3c77c288e9cb}; !- HVAC Component

OS:PortList,
  {07d3c31b-8374-44a1-84f8-22084abb88e3}, !- Handle
  {0ebb713d-0c1a-4a53-970b-3c77c288e9cb}; !- HVAC Component

OS:PortList,
  {a5e9e92a-1c5c-4303-8361-8d214a434505}, !- Handle
  {0ebb713d-0c1a-4a53-970b-3c77c288e9cb}; !- HVAC Component

OS:Sizing:Zone,
  {4aa1b4a4-1157-43a6-8599-b7f392f06db3}, !- Handle
  {0ebb713d-0c1a-4a53-970b-3c77c288e9cb}, !- Zone or ZoneList Name
  SupplyAirTemperature,                   !- Zone Cooling Design Supply Air Temperature Input Method
  14,                                     !- Zone Cooling Design Supply Air Temperature {C}
  11.11,                                  !- Zone Cooling Design Supply Air Temperature Difference {deltaC}
  SupplyAirTemperature,                   !- Zone Heating Design Supply Air Temperature Input Method
  40,                                     !- Zone Heating Design Supply Air Temperature {C}
  11.11,                                  !- Zone Heating Design Supply Air Temperature Difference {deltaC}
  0.0085,                                 !- Zone Cooling Design Supply Air Humidity Ratio {kg-H2O/kg-air}
  0.008,                                  !- Zone Heating Design Supply Air Humidity Ratio {kg-H2O/kg-air}
  ,                                       !- Zone Heating Sizing Factor
  ,                                       !- Zone Cooling Sizing Factor
  DesignDay,                              !- Cooling Design Air Flow Method
  ,                                       !- Cooling Design Air Flow Rate {m3/s}
  ,                                       !- Cooling Minimum Air Flow per Zone Floor Area {m3/s-m2}
  ,                                       !- Cooling Minimum Air Flow {m3/s}
  ,                                       !- Cooling Minimum Air Flow Fraction
  DesignDay,                              !- Heating Design Air Flow Method
  ,                                       !- Heating Design Air Flow Rate {m3/s}
  ,                                       !- Heating Maximum Air Flow per Zone Floor Area {m3/s-m2}
  ,                                       !- Heating Maximum Air Flow {m3/s}
  ,                                       !- Heating Maximum Air Flow Fraction
  No,                                     !- Account for Dedicated Outdoor Air System
  NeutralSupplyAir,                       !- Dedicated Outdoor Air System Control Strategy
  autosize,                               !- Dedicated Outdoor Air Low Setpoint Temperature for Design {C}
  autosize,                               !- Dedicated Outdoor Air High Setpoint Temperature for Design {C}
  Sensible Load Only No Latent Load,      !- Zone Load Sizing Method
  HumidityRatioDifference,                !- Zone Latent Cooling Design Supply Air Humidity Ratio Input Method
  ,                                       !- Zone Dehumidification Design Supply Air Humidity Ratio {kgWater/kgDryAir}
  0.005,                                  !- Zone Cooling Design Supply Air Humidity Ratio Difference {kgWater/kgDryAir}
  HumidityRatioDifference,                !- Zone Latent Heating Design Supply Air Humidity Ratio Input Method
  ,                                       !- Zone Humidification Design Supply Air Humidity Ratio {kgWater/kgDryAir}
  0.005;                                  !- Zone Humidification Design Supply Air Humidity Ratio Difference {kgWater/kgDryAir}

OS:ZoneHVAC:EquipmentList,
  {567f15e3-013f-443b-8e44-7806a127d4d8}, !- Handle
  Zone HVAC Equipment List 2,             !- Name
  {0ebb713d-0c1a-4a53-970b-3c77c288e9cb}; !- Thermal Zone

OS:Space,
  {081b992e-44f3-43a9-a4ff-50bb7fd8d214}, !- Handle
  attic - vented 1,                       !- Name
  ,                                       !- Space Type Name
  ,                                       !- Default Construction Set Name
  ,                                       !- Default Schedule Set Name
  ,                                       !- Direction of Relative North {deg}
  ,                                       !- X Origin {m}
  ,                                       !- Y Origin {m}
  ,                                       !- Z Origin {m}
  ,                                       !- Building Story Name
  {0ebb713d-0c1a-4a53-970b-3c77c288e9cb}; !- Thermal Zone Name

OS:Material,
  {6c72bcf1-8e75-441d-b23e-9d62a2b54674}, !- Handle
  asphalt or fiberglass shingles,         !- Name
  Rough,                                  !- Roughness
  0.00635,                                !- Thickness {m}
  0.162714,                               !- Conductivity {W/m-K}
  1121.4,                                 !- Density {kg/m3}
  1465.45,                                !- Specific Heat {J/kg-K}
  0.9,                                    !- Thermal Absorptance
  0.85,                                   !- Solar Absorptance
  0.85;                                   !- Visible Absorptance

OS:Material,
  {e0620ff9-5f52-493c-bad6-b00bdbe5b8b8}, !- Handle
  roof rigid ins,                         !- Name
  Rough,                                  !- Roughness
  0.0028163194147757,                     !- Thickness {m}
  0.029427,                               !- Conductivity {W/m-K}
  32.04,                                  !- Density {kg/m3}
  1214.23,                                !- Specific Heat {J/kg-K}
  0.9,                                    !- Thermal Absorptance
  0.7,                                    !- Solar Absorptance
  0.7;                                    !- Visible Absorptance

OS:Material,
  {8cd201bd-3200-4c9c-b05b-77e8d88dae3a}, !- Handle
  osb sheathing 0.5 in.,                  !- Name
  Rough,                                  !- Roughness
  0.0127,                                 !- Thickness {m}
  0.1154577,                              !- Conductivity {W/m-K}
  512.64,                                 !- Density {kg/m3}