
OS:Version,
  {f806dd15-3c68-46a6-be4f-18e616def94f}, !- Handle
  3.6.1;                                  !- Version Identifier

OS:WeatherFile,
  {be1aa7f1-e8f4-4aea-8f69-f820df066949}, !- Handle
  Dallas Love Field,                      !- City
  TX,                                     !- State Province Region
  USA,                                    !- Country
  TMY3,                                   !- Data Source
  722583,                                 !- WMO Number
  32.85,                                  !- Latitude {deg}
  -96.85,                                 !- Longitude {deg}
  -6,                                     !- Time Zone {hr}
  134,                                    !- Elevation {m}
  C:/Users/ylou2/Desktop/resstock-3.1.0/national_baseline/run6/run/../../../weather/G4801130.epw, !- Url
  EAB8DA09,                               !- Checksum
  ,                                       !- Start Date Actual Year
  Sunday;                                 !- Start Day of Week

OS:YearDescription,
  {014e8c3a-8f4a-4506-afb9-0d5652b8f871}, !- Handle
  2007,                                   !- Calendar Year
  ,                                       !- Day of Week for Start Day
  ;                                       !- Is Leap Year

OS:Site,
  {f08737af-230a-4869-8c2b-dd73cc628631}, !- Handle
  Dallas Love Field_TX_USA,               !- Name
  32.85,                                  !- Latitude {deg}
  -96.85,                                 !- Longitude {deg}
  -6,                                     !- Time Zone {hr}
  134,                                    !- Elevation {m}
  Suburbs;                                !- Terrain

OS:RunPeriodControl:DaylightSavingTime,
  {76878e7b-feba-40f1-b0ed-93b461c2b493}, !- Handle
  Mar 12,                                 !- Start Date
  Nov 5;                                  !- End Date

OS:Site:GroundTemperature:Shallow,
  {4182788f-bc03-4a02-8e6c-83d9cae3df77}, !- Handle
  15.4161588036945,                       !- January Surface Ground Temperature {C}
  13.5641995812163,                       !- February Surface Ground Temperature {C}
  13.4158880451593,                       !- March Surface Ground Temperature {C}
  14.2947373246753,                       !- April Surface Ground Temperature {C}
  17.8228274486156,                       !- May Surface Ground Temperature {C}
  21.3344822320638,                       !- June Surface Ground Temperature {C}
  24.3788992515613,                       !- July Surface Ground Temperature {C}
  26.3074625575024,                       !- August Surface Ground Temperature {C}
  26.4713046031873,                       !- September Surface Ground Temperature {C}
  24.9027425010559,                       !- October Surface Ground Temperature {C}
  21.9359599029778,                       !- November Surface Ground Temperature {C}
  18.5320283850644;                       !- December Surface Ground Temperature {C}

OS:Site:GroundTemperature:Deep,
  {85a9b021-c125-4f71-9063-6655c8ab2187}, !- Handle
  19.7779908675799,                       !- January Deep Ground Temperature {C}
  19.7779908675799,                       !- February Deep Ground Temperature {C}
  19.7779908675799,                       !- March Deep Ground Temperature {C}
  19.7779908675799,                       !- April Deep Ground Temperature {C}
  19.7779908675799,                       !- May Deep Ground Temperature {C}
  19.7779908675799,                       !- June Deep Ground Temperature {C}
  19.7779908675799,                       !- July Deep Ground Temperature {C}
  19.7779908675799,                       !- August Deep Ground Temperature {C}
  19.7779908675799,                       !- September Deep Ground Temperature {C}
  19.7779908675799,                       !- October Deep Ground Temperature {C}
  19.7779908675799,                       !- November Deep Ground Temperature {C}
  19.7779908675799;                       !- December Deep Ground Temperature {C}

OS:SimulationControl,
  {e2e5ed88-23e6-44ab-bac8-78bb29360981}, !- Handle
  ,                                       !- Do Zone Sizing Calculation
  ,                                       !- Do System Sizing Calculation
  ,                                       !- Do Plant Sizing Calculation
  No;                                     !- Run Simulation for Sizing Periods

OS:Timestep,
  {6599e1d5-f415-4eab-8980-6620d1e48a1c}, !- Handle
  1;                                      !- Number of Timesteps per Hour

OS:ShadowCalculation,
  {d901398d-6788-4af4-bf34-201549c2b176}, !- Handle
  PolygonClipping,                        !- Shading Calculation Method
  ,                                       !- Shading Calculation Update Frequency Method
  20,                                     !- Shading Calculation Update Frequency
  200,                                    !- Maximum Figures in Shadow Overlap Calculations
  ,                                       !- Polygon Clipping Algorithm
  512,                                    !- Pixel Counting Resolution
  DetailedSkyDiffuseModeling,             !- Sky Diffuse Modeling Algorithm
  No,                                     !- Output External Shading Calculation Results
  No,                                     !- Disable Self-Shading Within Shading Zone Groups
  No;                                     !- Disable Self-Shading From Shading Zone Groups to Other Zones

OS:SurfaceConvectionAlgorithm:Outside,
  {f5f8ca63-a85c-426f-a1b5-cfc0533981c4}, !- Handle
  DOE-2;                                  !- Algorithm

OS:SurfaceConvectionAlgorithm:Inside,
  {be5161d4-7f42-4541-abfb-ef0a5bf645ea}, !- Handle
  TARP;                                   !- Algorithm

OS:ZoneCapacitanceMultiplier:ResearchSpecial,
  {12040f34-5e8a-479c-b822-660b4aac5b23}, !- Handle
  1,                                      !- Temperature Capacity Multiplier
  15,                                     !- Humidity Capacity Multiplier
  ;                                       !- Carbon Dioxide Capacity Multiplier

OS:ConvergenceLimits,
  {597c78dc-6b15-45cf-afe6-96a1abe17117}, !- Handle
  0;                                      !- Minimum System Timestep {minutes}

OS:RunPeriod,
  {ba19ec65-7165-4996-8078-df5de3663266}, !- Handle
  Run Period 1,                           !- Name
  1,                                      !- Begin Month
  1,                                      !- Begin Day of Month
  12,                                     !- End Month
  31,                                     !- End Day of Month
  ,                                       !- Use Weather File Holidays and Special Days
  ,                                       !- Use Weather File Daylight Saving Period
  ,                                       !- Apply Weekend Holiday Rule
  ,                                       !- Use Weather File Rain Indicators
  ,                                       !- Use Weather File Snow Indicators
  ;                                       !- Number of Times Runperiod to be Repeated

OS:PerformancePrecisionTradeoffs,
  {f81c3388-0890-4560-a89a-c2a52da2eca1}, !- Handle
  ,                                       !- Use Coil Direct Solutions
  CarrollMRT;                             !- Zone Radiant Exchange Algorithm

OS:ThermalZone,
  {036ebe01-41e4-412e-9b3e-2cbc304ed23b}, !- Handle
  living space,                           !- Name
  ,                                       !- Multiplier
  ,                                       !- Ceiling Height {m}
  193.460695916544,                       !- Volume {m3}
  ,                                       !- Floor Area {m2}
  ,                                       !- Zone Inside Convection Algorithm
  ,                                       !- Zone Outside Convection Algorithm
  ,                                       !- Zone Conditioning Equipment List Name
  {4793483c-7f6b-48dc-945b-618b4d9c7564}, !- Zone Air Inlet Port List
  {19d1d670-885a-404d-ba98-fda4cc7688ec}, !- Zone Air Exhaust Port List
  {e9f7d9e6-d33f-44e7-b5bc-58248867399c}, !- Zone Air Node Name
  {0f198c79-c5bd-4d47-9851-f757ab0a7ee0}, !- Zone Return Air Port List
  ,                                       !- Primary Daylighting Control Name
  ,                                       !- Fraction of Zone Controlled by Primary Daylighting Control
  ,                                       !- Secondary Daylighting Control Name
  ,                                       !- Fraction of Zone Controlled by Secondary Daylighting Control
  ,                                       !- Illuminance Map Name
  ,                                       !- Group Rendering Name
  {ec9bbb2f-f500-414b-9498-92852774b55f}, !- Thermostat Name
  No;                                     !- Use Ideal Air Loads

OS:Node,
  {0c680a5d-fc7b-4ae5-97f0-a1b6e0e5df34}, !- Handle
  Node 1,                                 !- Name
  {e9f7d9e6-d33f-44e7-b5bc-58248867399c}, !- Inlet Port
  ;                                       !- Outlet Port

OS:Connection,
  {e9f7d9e6-d33f-44e7-b5bc-58248867399c}, !- Handle
  {036ebe01-41e4-412e-9b3e-2cbc304ed23b}, !- Source Object
  11,                                     !- Outlet Port
  {0c680a5d-fc7b-4ae5-97f0-a1b6e0e5df34}, !- Target Object
  2;                                      !- Inlet Port

OS:PortList,
  {4793483c-7f6b-48dc-945b-618b4d9c7564}, !- Handle
  {036ebe01-41e4-412e-9b3e-2cbc304ed23b}, !- HVAC Component
  {1d040b7d-5331-4570-8ad3-da74d8d363b6}; !- Port 1

OS:PortList,
  {19d1d670-885a-404d-ba98-fda4cc7688ec}, !- Handle
  {036ebe01-41e4-412e-9b3e-2cbc304ed23b}; !- HVAC Component

OS:PortList,
  {0f198c79-c5bd-4d47-9851-f757ab0a7ee0}, !- Handle
  {036ebe01-41e4-412e-9b3e-2cbc304ed23b}, !- HVAC Component
  {dc7a4475-9f29-4216-b391-7cd86509e42b}; !- Port 1

OS:Sizing:Zone,
  {ed1b477b-6987-41b4-887b-80b673633607}, !- Handle
  {036ebe01-41e4-412e-9b3e-2cbc304ed23b}, !- Zone or ZoneList Name
  SupplyAirTemperature,                   !- Zone Cooling Design Supply Air Temperature Input Method
  14,                                     !- Zone Cooling Design Supply Air Temperature {C}
  11.11,                                  !- Zone Cooling Design Supply Air Temperature Difference {deltaC}
  SupplyAirTemperature,                   !- Zone Heating Design Supply Air Temperature Input Method
  40,                                     !- Zone Heating Design Supply Air Temperature {C}
  11.11,                                  !- Zone Heating Design Supply Air Temperature Difference {deltaC}
  0.0085,                                 !- Zone Cooling Design Supply Air Humidity Ratio {kg-H2O/kg-air}
  0.008,                                  !- Zone Heating Design Supply Air Humidity Ratio {kg-H2O/kg-air}
  ,                                       !- Zone Heating Sizing Factor
  ,                                       !- Zone Cooling Sizing Factor
  DesignDay,                              !- Cooling Design Air Flow Method
  ,                                       !- Cooling Design Air Flow Rate {m3/s}
  ,                                       !- Cooling Minimum Air Flow per Zone Floor Area {m3/s-m2}
  ,                                       !- Cooling Minimum Air Flow {m3/s}
  ,                                       !- Cooling Minimum Air Flow Fraction
  DesignDay,                              !- Heating Design Air Flow Method
  ,                                       !- Heating Design Air Flow Rate {m3/s}
  ,                                       !- Heating Maximum Air Flow per Zone Floor Area {m3/s-m2}
  ,                                       !- Heating Maximum Air Flow {m3/s}
  ,                                       !- Heating Maximum Air Flow Fraction
  No,                                     !- Account for Dedicated Outdoor Air System
  NeutralSupplyAir,                       !- Dedicated Outdoor Air System Control Strategy
  autosize,                               !- Dedicated Outdoor Air Low Setpoint Temperature for Design {C}
  autosize,                               !- Dedicated Outdoor Air High Setpoint Temperature for Design {C}
  Sensible Load Only No Latent Load,      !- Zone Load Sizing Method
  HumidityRatioDifference,                !- Zone Latent Cooling Design Supply Air Humidity Ratio Input Method
  ,                                       !- Zone Dehumidification Design Supply Air Humidity Ratio {kgWater/kgDryAir}
  0.005,                                  !- Zone Cooling Design Supply Air Humidity Ratio Difference {kgWater/kgDryAir}
  HumidityRatioDifference,                !- Zone Latent Heating Design Supply Air Humidity Ratio Input Method
  ,                                       !- Zone Humidification Design Supply Air Humidity Ratio {kgWater/kgDryAir}
  0.005;                                  !- Zone Humidification Design Supply Air Humidity Ratio Difference {kgWater/kgDryAir}

OS:ZoneHVAC:EquipmentList,
  {d6fb63e8-c591-4b70-8b58-8e508b945709}, !- Handle
  Zone HVAC Equipment List 1,             !- Name
  {036ebe01-41e4-412e-9b3e-2cbc304ed23b}, !- Thermal Zone
  ,                                       !- Load Distribution Scheme
  {e5e3033d-483d-4548-9bec-a9ca1d5f49b6}, !- Zone Equipment 1
  1,                                      !- Zone Equipment Cooling Sequence 1
  1,                                      !- Zone Equipment Heating or No-Load Sequence 1
  {dbdba7ed-6a44-46ac-8797-537323af7019}, !- Zone Equipment Sequential Cooling Fraction Schedule Name 1
  {dbc5d7b9-23aa-496c-9127-2b874dfbe1c1}; !- Zone Equipment Sequential Heating Fraction Schedule Name 1

OS:Space,
  {b03b244f-a15f-4675-8625-17ec686b919d}, !- Handle
  living space 1,                         !- Name
  ,                                       !- Space Type Name
  ,                                       !- Default Construction Set Name
  ,                                       !- Default Schedule Set Name
  ,                                       !- Direction of Relative North {deg}
  ,                                       !- X Origin {m}
  ,                                       !- Y Origin {m}
  ,                                       !- Z Origin {m}
  ,                                       !- Building Story Name
  {036ebe01-41e4-412e-9b3e-2cbc304ed23b}; !- Thermal Zone Name

OS:Schedule:Ruleset,
  {3a2091ca-ba89-422a-9c8d-ae6e2137acfe}, !- Handle
  heating setpoint,                       !- Name
  {b1f9d11e-9970-4fe1-968e-7124efad7713}, !- Schedule Type Limits Name
  {e1cdafee-e105-478b-a587-6e474cc6031d}; !- Default Day Schedule Name

OS:Schedule:Day,
  {e1cdafee-e105-478b-a587-6e474cc6031d}, !- Handle
  heating setpoint default day,           !- Name
  {b1f9d11e-9970-4fe1-968e-7124efad7713}, !- Schedule Type Limits Name
  ,                                       !- Interpolate to Timestep
  24,                                     !- Hour 1
  0,                                      !- Minute 1
  0;                                      !- Value Until Time 1

OS:Schedule:Rule,
  {da9e113e-bcc5-474c-b944-c7fb7837e81c}, !- Handle
  heating setpoint allday ruleset1,       !- Name
  {3a2091ca-ba89-422a-9c8d-ae6e2137acfe}, !- Schedule Ruleset Name
  0,                                      !- Rule Order
  {b22240bd-7be1-4205-819d-f3f95d0d9f25}, !- Day Schedule Name
  Yes,                                    !- Apply Sunday
  Yes,                                    !- Apply Monday
  Yes,                                    !- Apply Tuesday
  Yes,                                    !- Apply Wednesday
  Yes,                                    !- Apply Thursday
  Yes,                                    !- Apply Friday
  Yes,                                    !- Apply Saturday
  DateRange,                              !- Date Specification Type
  1,                                      !- Start Month
  1,                                      !- Start Day
  12,                                     !- End Month
  31;                                     !- End Day

OS:Schedule:Day,
  {b22240bd-7be1-4205-819d-f3f95d0d9f25}, !- Handle
  heating setpoint allday1,               !- Name
  {b1f9d11e-9970-4fe1-968e-7124efad7713}, !- Schedule Type Limits Name
  ,                                       !- Interpolate to Timestep
  24,                                     !- Hour 1
  0,                                      !- Minute 1
  21.1111111111111;                       !- Value Until Time 1

OS:Schedule:Ruleset,
  {83911413-d618-48f1-9677-ec93c30a5278}, !- Handle
  cooling setpoint,                       !- Name
  {b1f9d11e-9970-4fe1-968e-7124efad7713}, !- Schedule Type Limits Name
  {1d4cf004-ec32-49df-b7bd-b6b7edaa3130}; !- Default Day Schedule Name

OS:Schedule:Day,
  {1d4cf004-ec32-49df-b7bd-b6b7edaa3130}, !- Handle
  cooling setpoint default day,           !- Name
  {b1f9d11e-9970-4fe1-968e-7124efad7713}, !- Schedule Type Limits Name
  ,                                       !- Interpolate to Timestep
  24,                                     !- Hour 1
  0,                                      !- Minute 1
  0;                                      !- Value Until Time 1

OS:Schedule:Rule,
  {71b8ee1a-f2d5-48b6-8b28-e762d9902dbd}, !- Handle
  cooling setpoint allday ruleset1,       !- Name
  {83911413-d618-48f1-9677-ec93c30a5278}, !- Schedule Ruleset Name
  0,                                      !- Rule Order
  {b7dd45b2-08bd-470a-afce-e6d6f4612168}, !- Day Schedule Name
  Yes,                                    !- Apply Sunday
  Yes,                                    !- Apply Monday
  Yes,                                    !- Apply Tuesday
  Yes,                                    !- Apply Wednesday
  Yes,                                    !- Apply Thursday
  Yes,                                    !- Apply Friday
  Yes,                                    !- Apply Saturday
  DateRange,                              !- Date Specification Type
  1,                                      !- Start Month
  1,                                      !- Start Day
  12,                                     !- End Month
  31;                                     !- End Day

OS:Schedule:Day,
  {b7dd45b2-08bd-470a-afce-e6d6f4612168}, !- Handle
  cooling setpoint allday1,               !- Name
  {b1f9d11e-9970-4fe1-968e-7124efad7713}, !- Schedule Type Limits Name
  ,                                       !- Interpolate to Timestep
  24,                                     !- Hour 1
  0,                                      !- Minute 1
  21.1111111111111;                       !- Value Until Time 1

OS:ThermostatSetpoint:DualSetpoint,
  {ec9bbb2f-f500-414b-9498-92852774b55f}, !- Handle
  living space temperature setpoint,      !- Name
  {3a2091ca-ba89-422a-9c8d-ae6e2137acfe}, !- Heating Setpoint Temperature Schedule Name
  {83911413-d618-48f1-9677-ec93c30a5278}; !- Cooling Setpoint Temperature Schedule Name

OS:ScheduleTypeLimits,
  {b1f9d11e-9970-4fe1-968e-7124efad7713}, !- Handle
  Temperature,                            !- Name
  ,                                       !- Lower Limit Value
  ,                                       !- Upper Limit Value
  Continuous,                             !- Numeric Type
  Temperature;                            !- Unit Type

OS:Surface,
  {aac7edb9-d79e-4137-af79-28f015d982e6}, !- Handle
  Wall1,                                  !- Name
  Wall,                                   !- Surface Type
  {e6bb04a2-829a-4f50-931a-bff0f48fef85}, !- Construction Name
  {b03b244f-a15f-4675-8625-17ec686b919d}, !- Space Name
  Outdoors,                               !- Outside Boundary Condition
  ,                                       !- Outside Boundary Condition Object
  SunExposed,                             !- Sun Exposure
  WindExposed,                            !- Wind Exposure
  ,                                       !- View Factor to Ground
  ,                                       !- Number of Vertices
  6.43859525496672, 2.52160636703069, 0,  !- X,Y,Z Vertex 1 {m}
  6.43859525496672, 2.52160636703069, 2.4384, !- X,Y,Z Vertex 2 {m}
  6.4385953276459, -2.92288363296931, 2.4384, !- X,Y,Z Vertex 3 {m}
  6.4385953276459, -2.92288363296931, 0;  !- X,Y,Z Vertex 4 {m}

OS:AdditionalProperties,
  {54410382-192f-41e7-8ae5-4ee1a9be59fa}, !- Handle
  {aac7edb9-d79e-4137-af79-28f015d982e6}, !- Object Name
  Length,                                 !- Feature Name 1
  Double,                                 !- Feature Data Type 1
  17.862500000000001,                     !- Feature Value 1
  Azimuth,                                !- Feature Name 2
  Integer,                                !- Feature Data Type 2
  90,                                     !- Feature Value 2
  Tilt,                                   !- Feature Name 3
  Double,                                 !- Feature Data Type 3
  90,                                     !- Feature Value 3
  SurfaceType,                            !- Feature Name 4
  String,                                 !- Feature Data Type 4
  Wall;                                   !- Feature Value 4

OS:Material,
  {d37d2162-9622-4fa5-bd56-f93c48b1a211}, !- Handle
  brick veneer,                           !- Name
  Rough,                                  !- Roughness
  0.1016,                                 !- Thickness {m}
  0.793375,                               !- Conductivity {W/m-K}
  1762.2,                                 !- Density {kg/m3}
  795.53,                                 !- Specific Heat {J/kg-K}
  0.9,                                    !- Thermal Absorptance
  0.85,                                   !- Solar Absorptance
  0.85;                                   !- Visible Absorptance

OS:Material,
  {5f0d742d-10d5-4013-93b7-08e24c4fb8a1}, !- Handle
  osb sheathing 0.5 in.,                  !- Name
  Rough,                                  !- Roughness
  0.0127,                                 !- Thickness {m}
  0.1154577,                              !- Conductivity {W/m-K}
  512.64,                                 !- Density {kg/m3}
  1214.23,                                !- Specific Heat {J/kg-K}
  0.9,                                    !- Thermal Absorptance
  0.7,                                    !- Solar Absorptance
  0.7;                                    !- Visible Absorptance

OS:Material,
  {a47501ad-c0b8-4069-b548-5246dcf61ea1}, !- Handle
  wall stud and cavity,                   !- Name
  Rough,                                  !- Roughness
  0.1397,                                 !- Thickness {m}
  0.0953452458352978,                     !- Conductivity {W/m-K}
  139.0536,                               !- Density {kg/m3}
  1170.23755760369,                       !- Specific Heat {J/kg-K}
  0.9,                                    !- Thermal Absorptance
  0.7,                                    !- Solar Absorptance
  0.7;                                    !- Visible Absorptance

OS:Material,
  {50e95de4-a7ca-413d-8ce5-8e641bb1efca}, !- Handle
  gypsum board,                           !- Name
  Rough,                                  !- Roughness
  0.0127,                                 !- Thickness {m}
  0.1602906,                              !- Conductivity {W/m-K}
  801,                                    !- Density {kg/m3}
  837.4,                                  !- Specific Heat {J/kg-K}
  0.9,                                    !- Thermal Absorptance
  0.6,                                    !- Solar Absorptance
  0.6;                                    !- Visible Absorptance

OS:Construction,
  {e6bb04a2-829a-4f50-931a-bff0f48fef85}, !- Handle
  Wall1 construction,                     !- Name
  ,                                       !- Surface Rendering Name
  {d37d2162-9622-4fa5-bd56-f93c48b1a211}, !- Layer 1
  {5f0d742d-10d5-4013-93b7-08e24c4fb8a1}, !- Layer 2
  {a47501ad-c0b8-4069-b548-5246dcf61ea1}, !- Layer 3
  {50e95de4-a7ca-413d-8ce5-8e641bb1efca}; !- Layer 4

OS:Surface,
  {f487c6cb-4085-402b-a816-57be8842a411}, !- Handle
  Wall2,                                  !- Name
  Wall,                                   !- Surface Type
  {23d42573-d0d4-4c46-936c-9de9e005d784}, !- Construction Name
  {b03b244f-a15f-4675-8625-17ec686b919d}, !- Space Name
  Adiabatic,                              !- Outside Boundary Condition
  ,                                       !- Outside Boundary Condition Object
  NoSun,                                  !- Sun Exposure
  NoWind,                                 !- Wind Exposure
  ,                                       !- View Factor to Ground
  ,                                       !- Number of Vertices
  5.50956497189922, -6.43859514505474, 0, !- X,Y,Z Vertex 1 {m}
  5.50956497189922, -6.43859514505474, 2.4384, !- X,Y,Z Vertex 2 {m}
  -6.43859502810078, -6.43859546404969, 2.4384, !- X,Y,Z Vertex 3 {m}
  -6.43859502810078, -6.43859546404969, 0; !- X,Y,Z Vertex 4 {m}

OS:AdditionalProperties,
  {810628fe-5d6b-452e-9dcb-0460eb374f9d}, !- Handle
  {f487c6cb-4085-402b-a816-57be8842a411}, !- Object Name
  Length,                                 !- Feature Name 1
  Double,                                 !- Feature Data Type 1
  39.200000000000003,                     !- Feature Value 1
  Azimuth,                                !- Feature Name 2
  Integer,                                !- Feature Data Type 2
  180,                                    !- Feature Value 2
  Tilt,                                   !- Feature Name 3
  Double,                                 !- Feature Data Type 3
  90,                                     !- Feature Value 3
  SurfaceType,                            !- Feature Name 4
  String,                                 !- Feature Data Type 4
  Wall;                                   !- Feature Value 4

OS:Material,
  {f0aef381-defa-463c-a690-d0e46acebb13}, !- Handle
  osb sheathing 0.5 in. 1,                !- Name
  Rough,                                  !- Roughness
  0.0127,                                 !- Thickness {m}
  0.1154577,                              !- Conductivity {W/m-K}
  512.64,                                 !- Density {kg/m3}
  1214.23;                                !- Specific Heat {J/kg-K}

OS:Material,
  {723b5623-c68b-425d-b6f5-92ff9f967cf2}, !- Handle
  wall stud and cavity 1,                 !- Name
  Rough,                                  !- Roughness
  0.1397,                                 !- Thickness {m}
  0.506836069164873,                      !- Conductivity {W/m-K}
  139.0536,                               !- Density {kg/m3}
  1170.23755760369,                       !- Specific Heat {J/kg-K}
  0.9,                                    !- Thermal Absorptance
  0.7,                                    !- Solar Absorptance
  0.7;                                    !- Visible Absorptance

OS:Construction,
  {23d42573-d0d4-4c46-936c-9de9e005d784}, !- Handle
  Wall2 construction,                     !- Name
  ,                                       !- Surface Rendering Name
  {f0aef381-defa-463c-a690-d0e46acebb13}, !- Layer 1
  {723b5623-c68b-425d-b6f5-92ff9f967cf2}, !- Layer 2
  {50e95de4-a7ca-413d-8ce5-8e641bb1efca}; !- Layer 3

OS:Surface,
  {8206598d-4ef1-414b-a82a-8938e79aed1f}, !- Handle
  Wall3,                                  !- Name
  Wall,                                   !- Surface Type
  {da69abeb-e116-4dbf-bff9-1b1079600e7d}, !- Construction Name
  {b03b244f-a15f-4675-8625-17ec686b919d}, !- Space Name
  Adiabatic,                              !- Outside Boundary Condition
  ,                                       !- Outside Boundary Condition Object
  NoSun,                                  !- Sun Exposure
  NoWind,                                 !- Wind Exposure
  ,                                       !- View Factor to Ground
  ,                                       !- Number of Vertices
  -6.43859531947561, -0.202235057848834, 0, !- X,Y,Z Vertex 1 {m}
  -6.43859531947561, -0.202235057848834, 2.4384, !- X,Y,Z Vertex 2 {m}
  -6.43859558542341, 6.43859494215117, 2.4384, !- X,Y,Z Vertex 3 {m}
  -6.43859558542341, 6.43859494215117, 0; !- X,Y,Z Vertex 4 {m}

OS:AdditionalProperties,
  {489e6079-48ed-4024-ad47-c74e7d2e0b33}, !- Handle
  {8206598d-4ef1-414b-a82a-8938e79aed1f}, !- Object Name
  Length,                                 !- Feature Name 1
  Double,                                 !- Feature Data Type 1
  21.787500000000001,                     !- Feature Value 1
  Azimuth,                                !- Feature Name 2
  Integer,                                !- Feature Data Type 2
  270,                                    !- Feature Value 2
  Tilt,                                   !- Feature Name 3
  Double,                                 !- Feature Data Type 3
  90,                                     !- Feature Value 3
  SurfaceType,                            !- Feature Name 4
  String,                                 !- Feature Data Type 4
  Wall;                                   !- Feature Value 4

OS:Material,
  {c9d90cd7-fdf7-4ad6-9b17-fe655d68cfd5}, !- Handle
  osb sheathing 0.5 in. 2,                !- Name
  Rough,                                  !- Roughness
  0.0127,                                 !- Thickness {m}
  0.1154577,                              !- Conductivity {W/m-K}
  512.64,                                 !- Density {kg/m3}
  1214.23;                                !- Specific Heat {J/kg-K}

OS:Construction,
  {da69abeb-e116-4dbf-bff9-1b1079600e7d}, !- Handle
  Wall3 construction,                     !- Name
  ,                                       !- Surface Rendering Name
  {c9d90cd7-fdf7-4ad6-9b17-fe655d68cfd5}, !- Layer 1
  {723b5623-c68b-425d-b6f5-92ff9f967cf2}, !- Layer 2
  {50e95de4-a7ca-413d-8ce5-8e641bb1efca}; !- Layer 3

OS:Surface,
  {dfedbbd1-01bd-43bf-9441-bb3cdb639cc0}, !- Handle
  Wall4,                                  !- Name
  Wall,                                   !- Surface Type