
OS:Version,
  {f3a593c7-1e10-4cd9-832b-5109b3f7483b}, !- Handle
  3.6.1;                                  !- Version Identifier

OS:WeatherFile,
  {83d8945a-079c-4b12-ae00-477e648d0f48}, !- Handle
  Daytona Beach Intl Ap,                  !- City
  FL,                                     !- State Province Region
  USA,                                    !- Country
  TMY3,                                   !- Data Source
  722056,                                 !- WMO Number
  29.18,                                  !- Latitude {deg}
  -81.07,                                 !- Longitude {deg}
  -5,                                     !- Time Zone {hr}
  9,                                      !- Elevation {m}
  C:/Users/ylou2/Desktop/resstock-3.1.0/national_baseline/run8/run/../../../weather/G1201270.epw, !- Url
  B2D64C7C,                               !- Checksum
  ,                                       !- Start Date Actual Year
  Sunday;                                 !- Start Day of Week

OS:YearDescription,
  {24eaffd3-31df-4312-959a-664eef14d8c6}, !- Handle
  2007,                                   !- Calendar Year
  ,                                       !- Day of Week for Start Day
  ;                                       !- Is Leap Year

OS:Site,
  {338dcf94-f620-4d81-9b3a-38b0b183b433}, !- Handle
  Daytona Beach Intl Ap_FL_USA,           !- Name
  29.18,                                  !- Latitude {deg}
  -81.07,                                 !- Longitude {deg}
  -5,                                     !- Time Zone {hr}
  9,                                      !- Elevation {m}
  Suburbs;                                !- Terrain

OS:RunPeriodControl:DaylightSavingTime,
  {955b1fca-cb80-4b30-8fb3-6b4dedb081c3}, !- Handle
  Mar 12,                                 !- Start Date
  Nov 5;                                  !- End Date

OS:Site:GroundTemperature:Shallow,
  {b5591df6-3588-4ab8-995d-8ec042b89304}, !- Handle
  18.9456675348004,                       !- January Surface Ground Temperature {C}
  17.9216457835708,                       !- February Surface Ground Temperature {C}
  17.8396384493718,                       !- March Surface Ground Temperature {C}
  18.3255890941558,                       !- April Surface Ground Temperature {C}
  20.2764101399771,                       !- May Surface Ground Temperature {C}
  22.218143433785,                        !- June Surface Ground Temperature {C}
  23.9015224250391,                       !- July Surface Ground Temperature {C}
  24.9679016141361,                       !- August Surface Ground Temperature {C}
  25.0584963834544,                       !- September Surface Ground Temperature {C}
  24.1911761470037,                       !- October Surface Ground Temperature {C}
  22.5507243083631,                       !- November Surface Ground Temperature {C}
  20.6685554831905;                       !- December Surface Ground Temperature {C}

OS:Site:GroundTemperature:Deep,
  {3d8ce5b6-3671-498f-ae44-6ad79322b317}, !- Handle
  21.2755365296804,                       !- January Deep Ground Temperature {C}
  21.2755365296804,                       !- February Deep Ground Temperature {C}
  21.2755365296804,                       !- March Deep Ground Temperature {C}
  21.2755365296804,                       !- April Deep Ground Temperature {C}
  21.2755365296804,                       !- May Deep Ground Temperature {C}
  21.2755365296804,                       !- June Deep Ground Temperature {C}
  21.2755365296804,                       !- July Deep Ground Temperature {C}
  21.2755365296804,                       !- August Deep Ground Temperature {C}
  21.2755365296804,                       !- September Deep Ground Temperature {C}
  21.2755365296804,                       !- October Deep Ground Temperature {C}
  21.2755365296804,                       !- November Deep Ground Temperature {C}
  21.2755365296804;                       !- December Deep Ground Temperature {C}

OS:SimulationControl,
  {cef1966d-26da-499e-97e7-b54d09c2cb4a}, !- Handle
  ,                                       !- Do Zone Sizing Calculation
  ,                                       !- Do System Sizing Calculation
  ,                                       !- Do Plant Sizing Calculation
  No;                                     !- Run Simulation for Sizing Periods

OS:Timestep,
  {e41ed73c-e534-484d-9543-9ad6d2b851ed}, !- Handle
  1;                                      !- Number of Timesteps per Hour

OS:ShadowCalculation,
  {80bfa665-e106-410d-a820-c7e50c8d1607}, !- Handle
  PolygonClipping,                        !- Shading Calculation Method
  ,                                       !- Shading Calculation Update Frequency Method
  20,                                     !- Shading Calculation Update Frequency
  200,                                    !- Maximum Figures in Shadow Overlap Calculations
  ,                                       !- Polygon Clipping Algorithm
  512,                                    !- Pixel Counting Resolution
  DetailedSkyDiffuseModeling,             !- Sky Diffuse Modeling Algorithm
  No,                                     !- Output External Shading Calculation Results
  No,                                     !- Disable Self-Shading Within Shading Zone Groups
  No;                                     !- Disable Self-Shading From Shading Zone Groups to Other Zones

OS:SurfaceConvectionAlgorithm:Outside,
  {1aa88055-65b4-4afb-be27-a4458ec9f3fd}, !- Handle
  DOE-2;                                  !- Algorithm

OS:SurfaceConvectionAlgorithm:Inside,
  {75c6bff6-bea3-4053-9f44-513f12ab0620}, !- Handle
  TARP;                                   !- Algorithm

OS:ZoneCapacitanceMultiplier:ResearchSpecial,
  {54a14811-9dce-4d2b-922e-2bd677496388}, !- Handle
  1,                                      !- Temperature Capacity Multiplier
  15,                                     !- Humidity Capacity Multiplier
  ;                                       !- Carbon Dioxide Capacity Multiplier

OS:ConvergenceLimits,
  {49214473-4abc-4007-aa52-be583a7ade19}, !- Handle
  0;                                      !- Minimum System Timestep {minutes}

OS:RunPeriod,
  {a1d7fcc4-88e5-4a32-8647-af1ca252ebe5}, !- Handle
  Run Period 1,                           !- Name
  1,                                      !- Begin Month
  1,                                      !- Begin Day of Month
  12,                                     !- End Month
  31,                                     !- End Day of Month
  ,                                       !- Use Weather File Holidays and Special Days
  ,                                       !- Use Weather File Daylight Saving Period
  ,                                       !- Apply Weekend Holiday Rule
  ,                                       !- Use Weather File Rain Indicators
  ,                                       !- Use Weather File Snow Indicators
  ;                                       !- Number of Times Runperiod to be Repeated

OS:PerformancePrecisionTradeoffs,
  {c7b2b998-15e2-4f28-b590-a79c23121f24}, !- Handle
  ,                                       !- Use Coil Direct Solutions
  CarrollMRT;                             !- Zone Radiant Exchange Algorithm

OS:ThermalZone,
  {85d75ee9-58d0-42f5-9cb2-d229d533f185}, !- Handle
  living space,                           !- Name
  ,                                       !- Multiplier
  ,                                       !- Ceiling Height {m}
  493.619269791744,                       !- Volume {m3}
  ,                                       !- Floor Area {m2}
  ,                                       !- Zone Inside Convection Algorithm
  ,                                       !- Zone Outside Convection Algorithm
  ,                                       !- Zone Conditioning Equipment List Name
  {36968455-dc79-4ca3-9af5-b6de34e548d8}, !- Zone Air Inlet Port List
  {a8b764b3-e58a-423b-b6a7-68fa15e16a43}, !- Zone Air Exhaust Port List
  {b187e731-b8a9-4a9d-9646-ed1952143636}, !- Zone Air Node Name
  {b55e16e6-1482-4aa3-b5f2-a4cbcf4bb8a3}, !- Zone Return Air Port List
  ,                                       !- Primary Daylighting Control Name
  ,                                       !- Fraction of Zone Controlled by Primary Daylighting Control
  ,                                       !- Secondary Daylighting Control Name
  ,                                       !- Fraction of Zone Controlled by Secondary Daylighting Control
  ,                                       !- Illuminance Map Name
  ,                                       !- Group Rendering Name
  {d8989d89-013a-467a-abde-21319f5fa4aa}, !- Thermostat Name
  No;                                     !- Use Ideal Air Loads

OS:Node,
  {f827661e-32aa-45e5-836a-537bca62c37c}, !- Handle
  Node 1,                                 !- Name
  {b187e731-b8a9-4a9d-9646-ed1952143636}, !- Inlet Port
  ;                                       !- Outlet Port

OS:Connection,
  {b187e731-b8a9-4a9d-9646-ed1952143636}, !- Handle
  {85d75ee9-58d0-42f5-9cb2-d229d533f185}, !- Source Object
  11,                                     !- Outlet Port
  {f827661e-32aa-45e5-836a-537bca62c37c}, !- Target Object
  2;                                      !- Inlet Port

OS:PortList,
  {36968455-dc79-4ca3-9af5-b6de34e548d8}, !- Handle
  {85d75ee9-58d0-42f5-9cb2-d229d533f185}, !- HVAC Component
  {a319a50c-69c4-4539-af92-e2a453cd0d7d}; !- Port 1

OS:PortList,
  {a8b764b3-e58a-423b-b6a7-68fa15e16a43}, !- Handle
  {85d75ee9-58d0-42f5-9cb2-d229d533f185}; !- HVAC Component

OS:PortList,
  {b55e16e6-1482-4aa3-b5f2-a4cbcf4bb8a3}, !- Handle
  {85d75ee9-58d0-42f5-9cb2-d229d533f185}, !- HVAC Component
  {18158d5b-bf71-4872-99d9-1c719d9f18c4}; !- Port 1

OS:Sizing:Zone,
  {a9b7910a-3395-4cbf-9b9f-6cce73d55961}, !- Handle
  {85d75ee9-58d0-42f5-9cb2-d229d533f185}, !- Zone or ZoneList Name
  SupplyAirTemperature,                   !- Zone Cooling Design Supply Air Temperature Input Method
  14,                                     !- Zone Cooling Design Supply Air Temperature {C}
  11.11,                                  !- Zone Cooling Design Supply Air Temperature Difference {deltaC}
  SupplyAirTemperature,                   !- Zone Heating Design Supply Air Temperature Input Method
  40,                                     !- Zone Heating Design Supply Air Temperature {C}
  11.11,                                  !- Zone Heating Design Supply Air Temperature Difference {deltaC}
  0.0085,                                 !- Zone Cooling Design Supply Air Humidity Ratio {kg-H2O/kg-air}
  0.008,                                  !- Zone Heating Design Supply Air Humidity Ratio {kg-H2O/kg-air}
  ,                                       !- Zone Heating Sizing Factor
  ,                                       !- Zone Cooling Sizing Factor
  DesignDay,                              !- Cooling Design Air Flow Method
  ,                                       !- Cooling Design Air Flow Rate {m3/s}
  ,                                       !- Cooling Minimum Air Flow per Zone Floor Area {m3/s-m2}
  ,                                       !- Cooling Minimum Air Flow {m3/s}
  ,                                       !- Cooling Minimum Air Flow Fraction
  DesignDay,                              !- Heating Design Air Flow Method
  ,                                       !- Heating Design Air Flow Rate {m3/s}
  ,                                       !- Heating Maximum Air Flow per Zone Floor Area {m3/s-m2}
  ,                                       !- Heating Maximum Air Flow {m3/s}
  ,                                       !- Heating Maximum Air Flow Fraction
  No,                                     !- Account for Dedicated Outdoor Air System
  NeutralSupplyAir,                       !- Dedicated Outdoor Air System Control Strategy
  autosize,                               !- Dedicated Outdoor Air Low Setpoint Temperature for Design {C}
  autosize,                               !- Dedicated Outdoor Air High Setpoint Temperature for Design {C}
  Sensible Load Only No Latent Load,      !- Zone Load Sizing Method
  HumidityRatioDifference,                !- Zone Latent Cooling Design Supply Air Humidity Ratio Input Method
  ,                                       !- Zone Dehumidification Design Supply Air Humidity Ratio {kgWater/kgDryAir}
  0.005,                                  !- Zone Cooling Design Supply Air Humidity Ratio Difference {kgWater/kgDryAir}
  HumidityRatioDifference,                !- Zone Latent Heating Design Supply Air Humidity Ratio Input Method
  ,                                       !- Zone Humidification Design Supply Air Humidity Ratio {kgWater/kgDryAir}
  0.005;                                  !- Zone Humidification Design Supply Air Humidity Ratio Difference {kgWater/kgDryAir}

OS:ZoneHVAC:EquipmentList,
  {0fcdece5-f31e-4f26-8646-1ba28f04dc5e}, !- Handle
  Zone HVAC Equipment List 1,             !- Name
  {85d75ee9-58d0-42f5-9cb2-d229d533f185}, !- Thermal Zone
  ,                                       !- Load Distribution Scheme
  {95030234-9a9c-4bd7-a0bb-867a4dfc9c16}, !- Zone Equipment 1
  1,                                      !- Zone Equipment Cooling Sequence 1
  1,                                      !- Zone Equipment Heating or No-Load Sequence 1
  {c9c2cb1e-72d3-4cd8-9b9c-2429b7421e2c}, !- Zone Equipment Sequential Cooling Fraction Schedule Name 1
  {9c0079ab-2717-4b7c-80d8-34ed84578775}; !- Zone Equipment Sequential Heating Fraction Schedule Name 1

OS:Space,
  {9c9ac34e-b000-4887-abb7-d583930a2bcb}, !- Handle
  living space 1,                         !- Name
  ,                                       !- Space Type Name
  ,                                       !- Default Construction Set Name
  ,                                       !- Default Schedule Set Name
  ,                                       !- Direction of Relative North {deg}
  ,                                       !- X Origin {m}
  ,                                       !- Y Origin {m}
  ,                                       !- Z Origin {m}
  ,                                       !- Building Story Name
  {85d75ee9-58d0-42f5-9cb2-d229d533f185}; !- Thermal Zone Name

OS:Schedule:Ruleset,
  {5ae95ca7-cd16-4199-847a-1517e3b64659}, !- Handle
  heating setpoint,                       !- Name
  {28301af7-d789-44a0-979c-e7f74ed6b8de}, !- Schedule Type Limits Name
  {06dcd471-22d0-4b6c-93eb-5eaa44544ebf}; !- Default Day Schedule Name

OS:Schedule:Day,
  {06dcd471-22d0-4b6c-93eb-5eaa44544ebf}, !- Handle
  heating setpoint default day,           !- Name
  {28301af7-d789-44a0-979c-e7f74ed6b8de}, !- Schedule Type Limits Name
  ,                                       !- Interpolate to Timestep
  24,                                     !- Hour 1
  0,                                      !- Minute 1
  0;                                      !- Value Until Time 1

OS:Schedule:Rule,
  {cf68d191-3915-49ee-b46c-9ae7e264445c}, !- Handle
  heating setpoint allday ruleset1,       !- Name
  {5ae95ca7-cd16-4199-847a-1517e3b64659}, !- Schedule Ruleset Name
  0,                                      !- Rule Order
  {613ee548-ef1e-45d5-a549-8ede5dd8b235}, !- Day Schedule Name
  Yes,                                    !- Apply Sunday
  Yes,                                    !- Apply Monday
  Yes,                                    !- Apply Tuesday
  Yes,                                    !- Apply Wednesday
  Yes,                                    !- Apply Thursday
  Yes,                                    !- Apply Friday
  Yes,                                    !- Apply Saturday
  DateRange,                              !- Date Specification Type
  1,                                      !- Start Month
  1,                                      !- Start Day
  12,                                     !- End Month
  31;                                     !- End Day

OS:Schedule:Day,
  {613ee548-ef1e-45d5-a549-8ede5dd8b235}, !- Handle
  heating setpoint allday1,               !- Name
  {28301af7-d789-44a0-979c-e7f74ed6b8de}, !- Schedule Type Limits Name
  ,                                       !- Interpolate to Timestep
  1,                                      !- Hour 1
  0,                                      !- Minute 1
  21.1111111111111,                       !- Value Until Time 1
  10,                                     !- Hour 2
  0,                                      !- Minute 2
  14.4444444444444,                       !- Value Until Time 2
  24,                                     !- Hour 3
  0,                                      !- Minute 3
  21.1111111111111;                       !- Value Until Time 3

OS:Schedule:Ruleset,
  {bc2feab3-c2fb-4f7c-a557-88650d2d4f60}, !- Handle
  cooling setpoint,                       !- Name
  {28301af7-d789-44a0-979c-e7f74ed6b8de}, !- Schedule Type Limits Name
  {52a04e19-a68a-4d90-b1bc-1f51d96fae49}; !- Default Day Schedule Name

OS:Schedule:Day,
  {52a04e19-a68a-4d90-b1bc-1f51d96fae49}, !- Handle
  cooling setpoint default day,           !- Name
  {28301af7-d789-44a0-979c-e7f74ed6b8de}, !- Schedule Type Limits Name
  ,                                       !- Interpolate to Timestep
  24,                                     !- Hour 1
  0,                                      !- Minute 1
  0;                                      !- Value Until Time 1

OS:Schedule:Rule,
  {ee3a9a28-83cd-45f0-869e-49ebc3bb1059}, !- Handle
  cooling setpoint allday ruleset1,       !- Name
  {bc2feab3-c2fb-4f7c-a557-88650d2d4f60}, !- Schedule Ruleset Name
  0,                                      !- Rule Order
  {3265ca94-2bc9-4297-9644-9e4daf5de505}, !- Day Schedule Name
  Yes,                                    !- Apply Sunday
  Yes,                                    !- Apply Monday
  Yes,                                    !- Apply Tuesday
  Yes,                                    !- Apply Wednesday
  Yes,                                    !- Apply Thursday
  Yes,                                    !- Apply Friday
  Yes,                                    !- Apply Saturday
  DateRange,                              !- Date Specification Type
  1,                                      !- Start Month
  1,                                      !- Start Day
  12,                                     !- End Month
  31;                                     !- End Day

OS:Schedule:Day,
  {3265ca94-2bc9-4297-9644-9e4daf5de505}, !- Handle
  cooling setpoint allday1,               !- Name
  {28301af7-d789-44a0-979c-e7f74ed6b8de}, !- Schedule Type Limits Name
  ,                                       !- Interpolate to Timestep
  24,                                     !- Hour 1
  0,                                      !- Minute 1
  21.1111111111111;                       !- Value Until Time 1

OS:ThermostatSetpoint:DualSetpoint,
  {d8989d89-013a-467a-abde-21319f5fa4aa}, !- Handle
  living space temperature setpoint,      !- Name
  {5ae95ca7-cd16-4199-847a-1517e3b64659}, !- Heating Setpoint Temperature Schedule Name
  {bc2feab3-c2fb-4f7c-a557-88650d2d4f60}; !- Cooling Setpoint Temperature Schedule Name

OS:ScheduleTypeLimits,
  {28301af7-d789-44a0-979c-e7f74ed6b8de}, !- Handle
  Temperature,                            !- Name
  ,                                       !- Lower Limit Value
  ,                                       !- Upper Limit Value
  Continuous,                             !- Numeric Type
  Temperature;                            !- Unit Type

OS:Surface,
  {a06fb1e8-c3c3-4570-ab60-bc4284973a1f}, !- Handle
  Roof1,                                  !- Name
  RoofCeiling,                            !- Surface Type
  {356eec1f-bdc1-4c11-8763-d41eab32c75c}, !- Construction Name
  {aa45aea4-e070-47c8-87ea-683b7459beab}, !- Space Name
  Outdoors,                               !- Outside Boundary Condition
  ,                                       !- Outside Boundary Condition Object
  SunExposed,                             !- Sun Exposure
  WindExposed,                            !- Wind Exposure
  ,                                       !- View Factor to Ground
  ,                                       !- Number of Vertices
  -9.5235756467901, -20.8427015876741, 2.4384, !- X,Y,Z Vertex 1 {m}
  -9.5235756467901, -10.7185687373407, 7.5004664251667, !- X,Y,Z Vertex 2 {m}
  -20.8427002800822, -10.7185687373407, 7.5004664251667, !- X,Y,Z Vertex 3 {m}
  -20.8427002800822, -20.8427015876741, 2.4384; !- X,Y,Z Vertex 4 {m}

OS:AdditionalProperties,
  {5cae8920-c4a5-4121-9be3-6ebb2bf68162}, !- Handle
  {a06fb1e8-c3c3-4570-ab60-bc4284973a1f}, !- Object Name
  Length,                                 !- Feature Name 1
  Double,                                 !- Feature Data Type 1
  37.136235673530507,                     !- Feature Value 1
  Width,                                  !- Feature Name 2
  Double,                                 !- Feature Data Type 2
  37.136235673530507,                     !- Feature Value 2
  Azimuth,                                !- Feature Name 3
  Integer,                                !- Feature Data Type 3
  180,                                    !- Feature Value 3
  Tilt,                                   !- Feature Name 4
  Double,                                 !- Feature Data Type 4
  0.5,                                    !- Feature Value 4
  SurfaceType,                            !- Feature Name 5
  String,                                 !- Feature Data Type 5
  Roof;                                   !- Feature Value 5

OS:ThermalZone,
  {9cb9b47e-992b-4776-a7ab-58eebbba71df}, !- Handle
  attic - vented,                         !- Name
  ,                                       !- Multiplier
  ,                                       !- Ceiling Height {m}
  305.204575597636,                       !- Volume {m3}
  ,                                       !- Floor Area {m2}
  ,                                       !- Zone Inside Convection Algorithm
  ,                                       !- Zone Outside Convection Algorithm
  ,                                       !- Zone Conditioning Equipment List Name
  {73245eec-9d4d-441d-a51a-50d09e08237f}, !- Zone Air Inlet Port List
  {3932435c-7d5d-466e-95c7-049a60630c8a}, !- Zone Air Exhaust Port List
  {39b2a48f-7e78-40b1-abdc-ade16c234ad4}, !- Zone Air Node Name
  {658cfe3e-6188-4dfb-b168-e50a67c515a5}, !- Zone Return Air Port List
  ,                                       !- Primary Daylighting Control Name
  ,                                       !- Fraction of Zone Controlled by Primary Daylighting Control
  ,                                       !- Secondary Daylighting Control Name
  ,                                       !- Fraction of Zone Controlled by Secondary Daylighting Control
  ,                                       !- Illuminance Map Name
  ,                                       !- Group Rendering Name
  ,                                       !- Thermostat Name
  No;                                     !- Use Ideal Air Loads

OS:Node,
  {a483d5fa-2f57-4fa4-baca-09d665c123d2}, !- Handle
  Node 2,                                 !- Name
  {39b2a48f-7e78-40b1-abdc-ade16c234ad4}, !- Inlet Port
  ;                                       !- Outlet Port

OS:Connection,
  {39b2a48f-7e78-40b1-abdc-ade16c234ad4}, !- Handle
  {9cb9b47e-992b-4776-a7ab-58eebbba71df}, !- Source Object
  11,                                     !- Outlet Port
  {a483d5fa-2f57-4fa4-baca-09d665c123d2}, !- Target Object
  2;                                      !- Inlet Port

OS:PortList,
  {73245eec-9d4d-441d-a51a-50d09e08237f}, !- Handle
  {9cb9b47e-992b-4776-a7ab-58eebbba71df}; !- HVAC Component

OS:PortList,
  {3932435c-7d5d-466e-95c7-049a60630c8a}, !- Handle
  {9cb9b47e-992b-4776-a7ab-58eebbba71df}; !- HVAC Component

OS:PortList,
  {658cfe3e-6188-4dfb-b168-e50a67c515a5}, !- Handle
  {9cb9b47e-992b-4776-a7ab-58eebbba71df}; !- HVAC Component

OS:Sizing:Zone,
  {3fd1e480-30b2-4cd7-a20c-9d07dfd36623}, !- Handle
  {9cb9b47e-992b-4776-a7ab-58eebbba71df}, !- Zone or ZoneList Name
  SupplyAirTemperature,                   !- Zone Cooling Design Supply Air Temperature Input Method
  14,                                     !- Zone Cooling Design Supply Air Temperature {C}
  11.11,                                  !- Zone Cooling Design Supply Air Temperature Difference {deltaC}
  SupplyAirTemperature,                   !- Zone Heating Design Supply Air Temperature Input Method
  40,                                     !- Zone Heating Design Supply Air Temperature {C}
  11.11,                                  !- Zone Heating Design Supply Air Temperature Difference {deltaC}
  0.0085,                                 !- Zone Cooling Design Supply Air Humidity Ratio {kg-H2O/kg-air}
  0.008,                                  !- Zone Heating Design Supply Air Humidity Ratio {kg-H2O/kg-air}
  ,                                       !- Zone Heating Sizing Factor
  ,                                       !- Zone Cooling Sizing Factor
  DesignDay,                              !- Cooling Design Air Flow Method
  ,                                       !- Cooling Design Air Flow Rate {m3/s}
  ,                                       !- Cooling Minimum Air Flow per Zone Floor Area {m3/s-m2}
  ,                                       !- Cooling Minimum Air Flow {m3/s}
  ,                                       !- Cooling Minimum Air Flow Fraction
  DesignDay,                              !- Heating Design Air Flow Method
  ,                                       !- Heating Design Air Flow Rate {m3/s}
  ,                                       !- Heating Maximum Air Flow per Zone Floor Area {m3/s-m2}
  ,                                       !- Heating Maximum Air Flow {m3/s}
  ,                                       !- Heating Maximum Air Flow Fraction
  No,                                     !- Account for Dedicated Outdoor Air System
  NeutralSupplyAir,                       !- Dedicated Outdoor Air System Control Strategy
  autosize,                               !- Dedicated Outdoor Air Low Setpoint Temperature for Design {C}
  autosize,                               !- Dedicated Outdoor Air High Setpoint Temperature for Design {C}
  Sensible Load Only No Latent Load,      !- Zone Load Sizing Method
  HumidityRatioDifference,                !- Zone Latent Cooling Design Supply Air Humidity Ratio Input Method
  ,                                       !- Zone Dehumidification Design Supply Air Humidity Ratio {kgWater/kgDryAir}
  0.005,                                  !- Zone Cooling Design Supply Air Humidity Ratio Difference {kgWater/kgDryAir}
  HumidityRatioDifference,                !- Zone Latent Heating Design Supply Air Humidity Ratio Input Method
  ,                                       !- Zone Humidification Design Supply Air Humidity Ratio {kgWater/kgDryAir}
  0.005;                                  !- Zone Humidification Design Supply Air Humidity Ratio Difference {kgWater/kgDryAir}

OS:ZoneHVAC:EquipmentList,
  {de2c2145-39aa-4b78-8e10-8da45517ca62}, !- Handle
  Zone HVAC Equipment List 2,             !- Name
  {9cb9b47e-992b-4776-a7ab-58eebbba71df}; !- Thermal Zone

OS:Space,
  {aa45aea4-e070-47c8-87ea-683b7459beab}, !- Handle
  attic - vented 1,                       !- Name
  ,                                       !- Space Type Name
  ,                                       !- Default Construction Set Name
  ,                                       !- Default Schedule Set Name
  ,                                       !- Direction of Relative North {deg}
  ,                                       !- X Origin {m}
  ,                                       !- Y Origin {m}
  ,                                       !- Z Origin {m}
  ,                                       !- Building Story Name
  {9cb9b47e-992b-4776-a7ab-58eebbba71df}; !- Thermal Zone Name

OS:Material,
  {f1d19dac-148a-4e41-8a07-c2c118418d79}, !- Handle
  asphalt or fiberglass shingles,         !- Name
  Rough,                                  !- Roughness
  0.00635,                                !- Thickness {m}
  0.162714,                               !- Conductivity {W/m-K}
  1121.4,                                 !- Density {kg/m3}
  1465.45,                                !- Specific Heat {J/kg-K}
  0.9,                                    !- Thermal Absorptance
  0.85,                                   !- Solar Absorptance
  0.85;                                   !- Visible Absorptance

OS:Material,
  {2269ddc0-522a-4bdc-b262-1f6faafd14ce}, !- Handle
  roof rigid ins,                         !- Name
  Rough,                                  !- Roughness
  0.0028163194147757,                     !- Thickness {m}
  0.029427,                               !- Conductivity {W/m-K}
  32.04,                                  !- Density {kg/m3}
  1214.23,                                !- Specific Heat {J/kg-K}
  0.9,                                    !- Thermal Absorptance
  0.7,                                    !- Solar Absorptance
  0.7;                                    !- Visible Absorptance

OS:Material,
  {e0b837e4-c898-48e2-9e64-0a48a043bac3}, !- Handle
  osb sheathing 0.5 in.,                  !- Name
  Rough,                                  !- Roughness
  0.0127,                                 !- Thickness {m}
  0.1154577,                              !- Conductivity {W/m-K}
  512.64,                                 !- Density {kg/m3}
  1214.23,                                !- Specific Heat {J/kg-K}
  0.9,                                    !- Thermal Absorptance
  0.6,                                    !- Solar Absorptance
  0.6;                                    !- Visible Absorptance

OS:Construction,
  {356eec1f-bdc1-4c11-8763-d41eab32c75c}, !- Handle
  Roof1 construction,                     !- Name