
OS:Version,
  {91b8951c-9c4c-4d07-a34a-527cc4eab7d9}, !- Handle
  3.6.1;                                  !- Version Identifier

OS:WeatherFile,
  {35347428-1b89-4942-9d9e-07b01dd0473c}, !- Handle
  Oklahoma City Wiley,                    !- City
  OK,                                     !- State Province Region
  USA,                                    !- Country
  TMY3,                                   !- Data Source
  723544,                                 !- WMO Number
  35.53,                                  !- Latitude {deg}
  -97.65,                                 !- Longitude {deg}
  -6,                                     !- Time Zone {hr}
  396,                                    !- Elevation {m}
  C:/Users/ylou2/Desktop/resstock-3.1.0/national_baseline/run5/run/../../../weather/G4001090.epw, !- Url
  BD3089B8,                               !- Checksum
  ,                                       !- Start Date Actual Year
  Sunday;                                 !- Start Day of Week

OS:YearDescription,
  {2acbb9c4-2e41-4ce9-99bc-1959d35f5488}, !- Handle
  2007,                                   !- Calendar Year
  ,                                       !- Day of Week for Start Day
  ;                                       !- Is Leap Year

OS:Site,
  {1b29d6de-abc6-4606-a278-eb5f955713c9}, !- Handle
  Oklahoma City Wiley_OK_USA,             !- Name
  35.53,                                  !- Latitude {deg}
  -97.65,                                 !- Longitude {deg}
  -6,                                     !- Time Zone {hr}
  396,                                    !- Elevation {m}
  Suburbs;                                !- Terrain

OS:RunPeriodControl:DaylightSavingTime,
  {90d099b4-15cd-4fca-8fb3-f99f812a1fb6}, !- Handle
  Mar 12,                                 !- Start Date
  Nov 5;                                  !- End Date

OS:Site:GroundTemperature:Shallow,
  {6e5423a4-a4d1-423b-a931-67cd8b6473fd}, !- Handle
  10.5755112827841,                       !- January Surface Ground Temperature {C}
  8.56660335169955,                       !- February Surface Ground Temperature {C}
  8.40572280020587,                       !- March Surface Ground Temperature {C}
  9.35905226146967,                       !- April Surface Ground Temperature {C}
  13.1861388115072,                       !- May Surface Ground Temperature {C}
  16.995397168859,                        !- June Surface Ground Temperature {C}
  20.2978205817314,                       !- July Surface Ground Temperature {C}
  22.3898245923375,                       !- August Surface Ground Temperature {C}
  22.5675518235998,                       !- September Surface Ground Temperature {C}
  20.8660581788566,                       !- October Surface Ground Temperature {C}
  17.6478485019139,                       !- November Surface Ground Temperature {C}
  13.9554426755837;                       !- December Surface Ground Temperature {C}

OS:Site:GroundTemperature:Deep,
  {e600314e-1db7-45a7-9fcb-3d972fef18cc}, !- Handle
  15.3225342465753,                       !- January Deep Ground Temperature {C}
  15.3225342465753,                       !- February Deep Ground Temperature {C}
  15.3225342465753,                       !- March Deep Ground Temperature {C}
  15.3225342465753,                       !- April Deep Ground Temperature {C}
  15.3225342465753,                       !- May Deep Ground Temperature {C}
  15.3225342465753,                       !- June Deep Ground Temperature {C}
  15.3225342465753,                       !- July Deep Ground Temperature {C}
  15.3225342465753,                       !- August Deep Ground Temperature {C}
  15.3225342465753,                       !- September Deep Ground Temperature {C}
  15.3225342465753,                       !- October Deep Ground Temperature {C}
  15.3225342465753,                       !- November Deep Ground Temperature {C}
  15.3225342465753;                       !- December Deep Ground Temperature {C}

OS:SimulationControl,
  {a1f5a4e9-0b07-467f-889e-81e4c5b5aa49}, !- Handle
  ,                                       !- Do Zone Sizing Calculation
  ,                                       !- Do System Sizing Calculation
  ,                                       !- Do Plant Sizing Calculation
  No;                                     !- Run Simulation for Sizing Periods

OS:Timestep,
  {b9eac062-6004-4ddb-a540-6e95d39f5c75}, !- Handle
  1;                                      !- Number of Timesteps per Hour

OS:ShadowCalculation,
  {3fd6012f-7ea1-4bae-8de6-663c8e644851}, !- Handle
  PolygonClipping,                        !- Shading Calculation Method
  ,                                       !- Shading Calculation Update Frequency Method
  20,                                     !- Shading Calculation Update Frequency
  200,                                    !- Maximum Figures in Shadow Overlap Calculations
  ,                                       !- Polygon Clipping Algorithm
  512,                                    !- Pixel Counting Resolution
  DetailedSkyDiffuseModeling,             !- Sky Diffuse Modeling Algorithm
  No,                                     !- Output External Shading Calculation Results
  No,                                     !- Disable Self-Shading Within Shading Zone Groups
  No;                                     !- Disable Self-Shading From Shading Zone Groups to Other Zones

OS:SurfaceConvectionAlgorithm:Outside,
  {becc88fb-e83f-48ce-b8c3-1aff17b17148}, !- Handle
  DOE-2;                                  !- Algorithm

OS:SurfaceConvectionAlgorithm:Inside,
  {7abc0958-4dd0-42ca-bd22-4108311542de}, !- Handle
  TARP;                                   !- Algorithm

OS:ZoneCapacitanceMultiplier:ResearchSpecial,
  {41ed2d6f-03f7-49a2-8902-477607a39c16}, !- Handle
  1,                                      !- Temperature Capacity Multiplier
  15,                                     !- Humidity Capacity Multiplier
  ;                                       !- Carbon Dioxide Capacity Multiplier

OS:ConvergenceLimits,
  {015993ce-165f-440f-a419-60c022c7d667}, !- Handle
  0;                                      !- Minimum System Timestep {minutes}

OS:RunPeriod,
  {faba5624-7407-4832-8068-9a533295a0db}, !- Handle
  Run Period 1,                           !- Name
  1,                                      !- Begin Month
  1,                                      !- Begin Day of Month
  12,                                     !- End Month
  31,                                     !- End Day of Month
  ,                                       !- Use Weather File Holidays and Special Days
  ,                                       !- Use Weather File Daylight Saving Period
  ,                                       !- Apply Weekend Holiday Rule
  ,                                       !- Use Weather File Rain Indicators
  ,                                       !- Use Weather File Snow Indicators
  ;                                       !- Number of Times Runperiod to be Repeated

OS:PerformancePrecisionTradeoffs,
  {5c9b217a-c831-4fcc-a88f-318eaae50ad5}, !- Handle
  ,                                       !- Use Coil Direct Solutions
  CarrollMRT;                             !- Zone Radiant Exchange Algorithm

OS:ThermalZone,
  {46a11de6-a300-4b83-8392-fe50cd27eea9}, !- Handle
  living space,                           !- Name
  ,                                       !- Multiplier
  ,                                       !- Ceiling Height {m}
  606.660121387008,                       !- Volume {m3}
  ,                                       !- Floor Area {m2}
  ,                                       !- Zone Inside Convection Algorithm
  ,                                       !- Zone Outside Convection Algorithm
  ,                                       !- Zone Conditioning Equipment List Name
  {af2e695d-5750-4d57-aa02-5cb5b88ebecd}, !- Zone Air Inlet Port List
  {803c2413-d2d7-49de-a8db-30ee7510f20d}, !- Zone Air Exhaust Port List
  {33cf5f2e-a081-483f-be46-56101e547656}, !- Zone Air Node Name
  {fc3c7c58-6f02-4192-97f1-62542736110c}, !- Zone Return Air Port List
  ,                                       !- Primary Daylighting Control Name
  ,                                       !- Fraction of Zone Controlled by Primary Daylighting Control
  ,                                       !- Secondary Daylighting Control Name
  ,                                       !- Fraction of Zone Controlled by Secondary Daylighting Control
  ,                                       !- Illuminance Map Name
  ,                                       !- Group Rendering Name
  {1232de2f-dbeb-445d-8e36-367cfb42e0f3}, !- Thermostat Name
  No;                                     !- Use Ideal Air Loads

OS:Node,
  {6e0b4e31-36d5-4bd5-ac90-3c64af8ae269}, !- Handle
  Node 1,                                 !- Name
  {33cf5f2e-a081-483f-be46-56101e547656}, !- Inlet Port
  ;                                       !- Outlet Port

OS:Connection,
  {33cf5f2e-a081-483f-be46-56101e547656}, !- Handle
  {46a11de6-a300-4b83-8392-fe50cd27eea9}, !- Source Object
  11,                                     !- Outlet Port
  {6e0b4e31-36d5-4bd5-ac90-3c64af8ae269}, !- Target Object
  2;                                      !- Inlet Port

OS:PortList,
  {af2e695d-5750-4d57-aa02-5cb5b88ebecd}, !- Handle
  {46a11de6-a300-4b83-8392-fe50cd27eea9}, !- HVAC Component
  {3c8978d3-d80b-463f-99c4-be88740f30ee}, !- Port 1
  {7444035c-b29b-478a-9ef7-1578c2ebae74}, !- Port 2
  {6020f35c-fbbe-4768-b085-bf0c5eb02a45}; !- Port 3

OS:PortList,
  {803c2413-d2d7-49de-a8db-30ee7510f20d}, !- Handle
  {46a11de6-a300-4b83-8392-fe50cd27eea9}, !- HVAC Component
  {9b60e428-d449-4315-8236-b20892e031a3}; !- Port 1

OS:PortList,
  {fc3c7c58-6f02-4192-97f1-62542736110c}, !- Handle
  {46a11de6-a300-4b83-8392-fe50cd27eea9}, !- HVAC Component
  {b3a8a25e-fb01-48eb-a7a3-c56ff6e16d1d}, !- Port 1
  {537d574b-22c7-4205-9982-4bb11468098b}; !- Port 2

OS:Sizing:Zone,
  {3cfac283-fc82-4cc0-8bb2-d13036db32bd}, !- Handle
  {46a11de6-a300-4b83-8392-fe50cd27eea9}, !- Zone or ZoneList Name
  SupplyAirTemperature,                   !- Zone Cooling Design Supply Air Temperature Input Method
  14,                                     !- Zone Cooling Design Supply Air Temperature {C}
  11.11,                                  !- Zone Cooling Design Supply Air Temperature Difference {deltaC}
  SupplyAirTemperature,                   !- Zone Heating Design Supply Air Temperature Input Method
  40,                                     !- Zone Heating Design Supply Air Temperature {C}
  11.11,                                  !- Zone Heating Design Supply Air Temperature Difference {deltaC}
  0.0085,                                 !- Zone Cooling Design Supply Air Humidity Ratio {kg-H2O/kg-air}
  0.008,                                  !- Zone Heating Design Supply Air Humidity Ratio {kg-H2O/kg-air}
  ,                                       !- Zone Heating Sizing Factor
  ,                                       !- Zone Cooling Sizing Factor
  DesignDay,                              !- Cooling Design Air Flow Method
  ,                                       !- Cooling Design Air Flow Rate {m3/s}
  ,                                       !- Cooling Minimum Air Flow per Zone Floor Area {m3/s-m2}
  ,                                       !- Cooling Minimum Air Flow {m3/s}
  ,                                       !- Cooling Minimum Air Flow Fraction
  DesignDay,                              !- Heating Design Air Flow Method
  ,                                       !- Heating Design Air Flow Rate {m3/s}
  ,                                       !- Heating Maximum Air Flow per Zone Floor Area {m3/s-m2}
  ,                                       !- Heating Maximum Air Flow {m3/s}
  ,                                       !- Heating Maximum Air Flow Fraction
  No,                                     !- Account for Dedicated Outdoor Air System
  NeutralSupplyAir,                       !- Dedicated Outdoor Air System Control Strategy
  autosize,                               !- Dedicated Outdoor Air Low Setpoint Temperature for Design {C}
  autosize,                               !- Dedicated Outdoor Air High Setpoint Temperature for Design {C}
  Sensible Load Only No Latent Load,      !- Zone Load Sizing Method
  HumidityRatioDifference,                !- Zone Latent Cooling Design Supply Air Humidity Ratio Input Method
  ,                                       !- Zone Dehumidification Design Supply Air Humidity Ratio {kgWater/kgDryAir}
  0.005,                                  !- Zone Cooling Design Supply Air Humidity Ratio Difference {kgWater/kgDryAir}
  HumidityRatioDifference,                !- Zone Latent Heating Design Supply Air Humidity Ratio Input Method
  ,                                       !- Zone Humidification Design Supply Air Humidity Ratio {kgWater/kgDryAir}
  0.005;                                  !- Zone Humidification Design Supply Air Humidity Ratio Difference {kgWater/kgDryAir}

OS:ZoneHVAC:EquipmentList,
  {7c0e8f5b-e41b-46e4-af7d-31f5053ea364}, !- Handle
  Zone HVAC Equipment List 1,             !- Name
  {46a11de6-a300-4b83-8392-fe50cd27eea9}, !- Thermal Zone
  ,                                       !- Load Distribution Scheme
  {e8daf738-b783-405f-bd47-61911cf08019}, !- Zone Equipment 1
  1,                                      !- Zone Equipment Cooling Sequence 1
  1,                                      !- Zone Equipment Heating or No-Load Sequence 1
  {30a8d7d2-a01a-4dd3-b048-c1e16265148c}, !- Zone Equipment Sequential Cooling Fraction Schedule Name 1
  {ce969b07-7186-49a1-bd05-51851d20fff8}, !- Zone Equipment Sequential Heating Fraction Schedule Name 1
  {55eb9fa7-bcf1-4a20-ba0e-c60b0e0289d3}, !- Zone Equipment 2
  2,                                      !- Zone Equipment Cooling Sequence 2
  2,                                      !- Zone Equipment Heating or No-Load Sequence 2
  {e36019d5-8431-48ae-a825-f5b71e7308ad}, !- Zone Equipment Sequential Cooling Fraction Schedule Name 2
  {b3f47082-3aac-4b86-84da-1c3fc6b1d1cf}, !- Zone Equipment Sequential Heating Fraction Schedule Name 2
  {e45443df-0419-4ed2-b720-31f14e275bb5}, !- Zone Equipment 3
  3,                                      !- Zone Equipment Cooling Sequence 3
  3,                                      !- Zone Equipment Heating or No-Load Sequence 3
  {59ccf6ce-a02d-47ac-9e71-cecee892ed31}, !- Zone Equipment Sequential Cooling Fraction Schedule Name 3
  {9a93d1e5-7eab-4116-ab36-9dddd2a4bc50}; !- Zone Equipment Sequential Heating Fraction Schedule Name 3

OS:Space,
  {cfeef652-ad73-4e32-9b7b-1ba2d1c5f45e}, !- Handle
  living space 1,                         !- Name
  ,                                       !- Space Type Name
  ,                                       !- Default Construction Set Name
  ,                                       !- Default Schedule Set Name
  ,                                       !- Direction of Relative North {deg}
  ,                                       !- X Origin {m}
  ,                                       !- Y Origin {m}
  ,                                       !- Z Origin {m}
  ,                                       !- Building Story Name
  {46a11de6-a300-4b83-8392-fe50cd27eea9}; !- Thermal Zone Name

OS:Schedule:Ruleset,
  {eb15298d-9e39-4165-99f5-d4700b51dff9}, !- Handle
  heating setpoint,                       !- Name
  {9fd0910e-f1d9-4e3e-aa95-e554c73f2575}, !- Schedule Type Limits Name
  {d73ca449-0cba-4858-ab46-577cf93a3480}; !- Default Day Schedule Name

OS:Schedule:Day,
  {d73ca449-0cba-4858-ab46-577cf93a3480}, !- Handle
  heating setpoint default day,           !- Name
  {9fd0910e-f1d9-4e3e-aa95-e554c73f2575}, !- Schedule Type Limits Name
  ,                                       !- Interpolate to Timestep
  24,                                     !- Hour 1
  0,                                      !- Minute 1
  0;                                      !- Value Until Time 1

OS:Schedule:Rule,
  {b710b03e-8fad-470a-9912-53c3e41f9466}, !- Handle
  heating setpoint allday ruleset1,       !- Name
  {eb15298d-9e39-4165-99f5-d4700b51dff9}, !- Schedule Ruleset Name
  0,                                      !- Rule Order
  {4a8251fe-ceec-4014-b7b2-957d7f8ba2e2}, !- Day Schedule Name
  Yes,                                    !- Apply Sunday
  Yes,                                    !- Apply Monday
  Yes,                                    !- Apply Tuesday
  Yes,                                    !- Apply Wednesday
  Yes,                                    !- Apply Thursday
  Yes,                                    !- Apply Friday
  Yes,                                    !- Apply Saturday
  DateRange,                              !- Date Specification Type
  1,                                      !- Start Month
  1,                                      !- Start Day
  12,                                     !- End Month
  31;                                     !- End Day

OS:Schedule:Day,
  {4a8251fe-ceec-4014-b7b2-957d7f8ba2e2}, !- Handle
  heating setpoint allday1,               !- Name
  {9fd0910e-f1d9-4e3e-aa95-e554c73f2575}, !- Schedule Type Limits Name
  ,                                       !- Interpolate to Timestep
  5,                                      !- Hour 1
  0,                                      !- Minute 1
  22.5,                                   !- Value Until Time 1
  20,                                     !- Hour 2
  0,                                      !- Minute 2
  23.8888888888889,                       !- Value Until Time 2
  24,                                     !- Hour 3
  0,                                      !- Minute 3
  22.5;                                   !- Value Until Time 3

OS:Schedule:Ruleset,
  {0f6e5e2f-4885-48f7-b720-0b9ab97b9c50}, !- Handle
  cooling setpoint,                       !- Name
  {9fd0910e-f1d9-4e3e-aa95-e554c73f2575}, !- Schedule Type Limits Name
  {7f301258-2b62-4284-8a49-437dd2ed9746}; !- Default Day Schedule Name

OS:Schedule:Day,
  {7f301258-2b62-4284-8a49-437dd2ed9746}, !- Handle
  cooling setpoint default day,           !- Name
  {9fd0910e-f1d9-4e3e-aa95-e554c73f2575}, !- Schedule Type Limits Name
  ,                                       !- Interpolate to Timestep
  24,                                     !- Hour 1
  0,                                      !- Minute 1
  0;                                      !- Value Until Time 1

OS:Schedule:Rule,
  {bf156540-9409-4d83-962b-87f94839abb2}, !- Handle
  cooling setpoint allday ruleset1,       !- Name
  {0f6e5e2f-4885-48f7-b720-0b9ab97b9c50}, !- Schedule Ruleset Name
  0,                                      !- Rule Order
  {d1b91917-2c61-4b7f-91a7-a74c1ca66a5c}, !- Day Schedule Name
  Yes,                                    !- Apply Sunday
  Yes,                                    !- Apply Monday
  Yes,                                    !- Apply Tuesday
  Yes,                                    !- Apply Wednesday
  Yes,                                    !- Apply Thursday
  Yes,                                    !- Apply Friday
  Yes,                                    !- Apply Saturday
  DateRange,                              !- Date Specification Type
  1,                                      !- Start Month
  1,                                      !- Start Day
  12,                                     !- End Month
  31;                                     !- End Day

OS:Schedule:Day,
  {d1b91917-2c61-4b7f-91a7-a74c1ca66a5c}, !- Handle
  cooling setpoint allday1,               !- Name
  {9fd0910e-f1d9-4e3e-aa95-e554c73f2575}, !- Schedule Type Limits Name
  ,                                       !- Interpolate to Timestep
  5,                                      !- Hour 1
  0,                                      !- Minute 1
  22.5,                                   !- Value Until Time 1
  20,                                     !- Hour 2
  0,                                      !- Minute 2
  23.8888888888889,                       !- Value Until Time 2
  24,                                     !- Hour 3
  0,                                      !- Minute 3
  22.5;                                   !- Value Until Time 3

OS:ThermostatSetpoint:DualSetpoint,
  {1232de2f-dbeb-445d-8e36-367cfb42e0f3}, !- Handle
  living space temperature setpoint,      !- Name
  {eb15298d-9e39-4165-99f5-d4700b51dff9}, !- Heating Setpoint Temperature Schedule Name
  {0f6e5e2f-4885-48f7-b720-0b9ab97b9c50}; !- Cooling Setpoint Temperature Schedule Name

OS:ScheduleTypeLimits,
  {9fd0910e-f1d9-4e3e-aa95-e554c73f2575}, !- Handle
  Temperature,                            !- Name
  ,                                       !- Lower Limit Value
  ,                                       !- Upper Limit Value
  Continuous,                             !- Numeric Type
  Temperature;                            !- Unit Type

OS:Surface,
  {a6031b82-1b11-4a83-8504-589e7f328d60}, !- Handle
  Roof1,                                  !- Name
  RoofCeiling,                            !- Surface Type
  {a9027e20-160d-4751-bf05-8cc0326ac0a9}, !- Construction Name
  {bb87f339-fb65-44b2-8b59-0fd643b7f2ea}, !- Space Name
  Outdoors,                               !- Outside Boundary Condition
  ,                                       !- Outside Boundary Condition Object
  SunExposed,                             !- Sun Exposure
  WindExposed,                            !- Wind Exposure
  ,                                       !- View Factor to Ground
  ,                                       !- Number of Vertices
  -30.9366187763163, 58.8009353603647, 2.7432, !- X,Y,Z Vertex 1 {m}
  -30.9366190726869, 47.7001879866065, 8.29357368687911, !- X,Y,Z Vertex 2 {m}
  -18.525606208299, 47.7001876552542, 8.29357368687911, !- X,Y,Z Vertex 3 {m}
  -18.5256059119285, 58.8009350290124, 2.7432; !- X,Y,Z Vertex 4 {m}

OS:AdditionalProperties,
  {c4d92c43-5eb6-416c-872f-3e91383e50dc}, !- Handle
  {a6031b82-1b11-4a83-8504-589e7f328d60}, !- Object Name
  Length,                                 !- Feature Name 1
  Double,                                 !- Feature Data Type 1
  40.718546143004659,                     !- Feature Value 1
  Width,                                  !- Feature Name 2
  Double,                                 !- Feature Data Type 2
  40.718546143004666,                     !- Feature Value 2
  Azimuth,                                !- Feature Name 3
  Integer,                                !- Feature Data Type 3
  0,                                      !- Feature Value 3
  Tilt,                                   !- Feature Name 4
  Double,                                 !- Feature Data Type 4
  0.5,                                    !- Feature Value 4
  SurfaceType,                            !- Feature Name 5
  String,                                 !- Feature Data Type 5
  Roof;                                   !- Feature Value 5

OS:ThermalZone,
  {81b31cd4-ab8a-49a7-9de7-4f0aad48de6b}, !- Handle
  attic - vented,                         !- Name
  ,                                       !- Multiplier
  ,                                       !- Ceiling Height {m}
  391.773411475147,                       !- Volume {m3}
  ,                                       !- Floor Area {m2}
  ,                                       !- Zone Inside Convection Algorithm
  ,                                       !- Zone Outside Convection Algorithm
  ,                                       !- Zone Conditioning Equipment List Name
  {86b81648-032b-4ed1-bb58-67470c5acf17}, !- Zone Air Inlet Port List
  {6aa50b7b-a6a2-44c9-a680-6f6d01b13988}, !- Zone Air Exhaust Port List
  {4ee2d854-bebc-4c35-9539-1800cca38499}, !- Zone Air Node Name
  {6d1f439e-c050-4841-ab5b-76d8bf585433}, !- Zone Return Air Port List
  ,                                       !- Primary Daylighting Control Name
  ,                                       !- Fraction of Zone Controlled by Primary Daylighting Control
  ,                                       !- Secondary Daylighting Control Name
  ,                                       !- Fraction of Zone Controlled by Secondary Daylighting Control
  ,                                       !- Illuminance Map Name
  ,                                       !- Group Rendering Name
  ,                                       !- Thermostat Name
  No;                                     !- Use Ideal Air Loads

OS:Node,
  {0ddb4b6c-5a79-4142-8b64-7b1ca24b3296}, !- Handle
  Node 2,                                 !- Name
  {4ee2d854-bebc-4c35-9539-1800cca38499}, !- Inlet Port
  ;                                       !- Outlet Port

OS:Connection,
  {4ee2d854-bebc-4c35-9539-1800cca38499}, !- Handle
  {81b31cd4-ab8a-49a7-9de7-4f0aad48de6b}, !- Source Object
  11,                                     !- Outlet Port
  {0ddb4b6c-5a79-4142-8b64-7b1ca24b3296}, !- Target Object
  2;                                      !- Inlet Port

OS:PortList,
  {86b81648-032b-4ed1-bb58-67470c5acf17}, !- Handle
  {81b31cd4-ab8a-49a7-9de7-4f0aad48de6b}; !- HVAC Component

OS:PortList,
  {6aa50b7b-a6a2-44c9-a680-6f6d01b13988}, !- Handle
  {81b31cd4-ab8a-49a7-9de7-4f0aad48de6b}; !- HVAC Component

OS:PortList,
  {6d1f439e-c050-4841-ab5b-76d8bf585433}, !- Handle
  {81b31cd4-ab8a-49a7-9de7-4f0aad48de6b}; !- HVAC Component

OS:Sizing:Zone,
  {2a529142-6faf-490b-bcbf-2fe5129f3cb9}, !- Handle
  {81b31cd4-ab8a-49a7-9de7-4f0aad48de6b}, !- Zone or ZoneList Name
  SupplyAirTemperature,                   !- Zone Cooling Design Supply Air Temperature Input Method
  14,                                     !- Zone Cooling Design Supply Air Temperature {C}
  11.11,                                  !- Zone Cooling Design Supply Air Temperature Difference {deltaC}
  SupplyAirTemperature,                   !- Zone Heating Design Supply Air Temperature Input Method
  40,                                     !- Zone Heating Design Supply Air Temperature {C}
  11.11,                                  !- Zone Heating Design Supply Air Temperature Difference {deltaC}
  0.0085,                                 !- Zone Cooling Design Supply Air Humidity Ratio {kg-H2O/kg-air}
  0.008,                                  !- Zone Heating Design Supply Air Humidity Ratio {kg-H2O/kg-air}
  ,                                       !- Zone Heating Sizing Factor
  ,                                       !- Zone Cooling Sizing Factor
  DesignDay,                              !- Cooling Design Air Flow Method
  ,                                       !- Cooling Design Air Flow Rate {m3/s}
  ,                                       !- Cooling Minimum Air Flow per Zone Floor Area {m3/s-m2}
  ,                                       !- Cooling Minimum Air Flow {m3/s}
  ,                                       !- Cooling Minimum Air Flow Fraction
  DesignDay,                              !- Heating Design Air Flow Method
  ,                                       !- Heating Design Air Flow Rate {m3/s}
  ,                                       !- Heating Maximum Air Flow per Zone Floor Area {m3/s-m2}
  ,                                       !- Heating Maximum Air Flow {m3/s}
  ,                                       !- Heating Maximum Air Flow Fraction
  No,                                     !- Account for Dedicated Outdoor Air System
  NeutralSupplyAir,                       !- Dedicated Outdoor Air System Control Strategy
  autosize,                               !- Dedicated Outdoor Air Low Setpoint Temperature for Design {C}
  autosize,                               !- Dedicated Outdoor Air High Setpoint Temperature for Design {C}
  Sensible Load Only No Latent Load,      !- Zone Load Sizing Method
  HumidityRatioDifference,                !- Zone Latent Cooling Design Supply Air Humidity Ratio Input Method
  ,                                       !- Zone Dehumidification Design Supply Air Humidity Ratio {kgWater/kgDryAir}
  0.005,                                  !- Zone Cooling Design Supply Air Humidity Ratio Difference {kgWater/kgDryAir}
  HumidityRatioDifference,                !- Zone Latent Heating Design Supply Air Humidity Ratio Input Method
  ,                                       !- Zone Humidification Design Supply Air Humidity Ratio {kgWater/kgDryAir}
  0.005;                                  !- Zone Humidification Design Supply Air Humidity Ratio Difference {kgWater/kgDryAir}

OS:ZoneHVAC:EquipmentList,
  {9e61ff66-87e1-4782-ba81-d7bf92de145d}, !- Handle
  Zone HVAC Equipment List 2,             !- Name
  {81b31cd4-ab8a-49a7-9de7-4f0aad48de6b}; !- Thermal Zone

OS:Space,
  {bb87f339-fb65-44b2-8b59-0fd643b7f2ea}, !- Handle
  attic - vented 1,                       !- Name
  ,                                       !- Space Type Name
  ,                                       !- Default Construction Set Name
  ,                                       !- Default Schedule Set Name
  ,                                       !- Direction of Relative North {deg}
  ,                                       !- X Origin {m}
  ,                                       !- Y Origin {m}
  ,                                       !- Z Origin {m}
  ,                                       !- Building Story Name
  {81b31cd4-ab8a-49a7-9de7-4f0aad48de6b}; !- Thermal Zone Name

OS:Material,
  {2cb8de09-7900-41e3-b854-cb4b3c217e71}, !- Handle
  asphalt or fiberglass shingles,         !- Name
  Rough,                                  !- Roughness
  0.00635,                                !- Thickness {m}
  0.162714,                               !- Conductivity {W/m-K}
  1121.4,                                 !- Density {kg/m3}
  1465.45,                                !- Specific Heat {J/kg-K}
  0.9,                                    !- Thermal Absorptance
  0.85,                                   !- Solar Absorptance