
Version,
  23.1;                                   !- Version Identifier

Timestep,
  1;                                      !- Number of Timesteps per Hour

LifeCycleCost:Parameters,
  Life Cycle Cost Parameters,             !- Name
  EndOfYear,                              !- Discounting Convention
  ConstantDollar,                         !- Inflation Approach
  0.03,                                   !- Real Discount Rate
  ,                                       !- Nominal Discount Rate
  ,                                       !- Inflation
  ,                                       !- Base Date Month
  2011,                                   !- Base Date Year
  ,                                       !- Service Date Month
  2011,                                   !- Service Date Year
  25,                                     !- Length of Study Period in Years
  ,                                       !- Tax rate
  None;                                   !- Depreciation Method

LifeCycleCost:UsePriceEscalation,
  U.S. Avg  Commercial-Electricity,       !- Name
  Electricity,                            !- Resource
  2011,                                   !- Escalation Start Year
  January,                                !- Escalation Start Month
  0.9838,                                 !- Year Escalation 1
  0.9730,                                 !- Year Escalation 2
  0.9632,                                 !- Year Escalation 3
  0.9611,                                 !- Year Escalation 4
  0.9571,                                 !- Year Escalation 5
  0.9553,                                 !- Year Escalation 6
  0.9539,                                 !- Year Escalation 7
  0.9521,                                 !- Year Escalation 8
  0.9546,                                 !- Year Escalation 9
  0.9550,                                 !- Year Escalation 10
  0.9553,                                 !- Year Escalation 11
  0.9564,                                 !- Year Escalation 12
  0.9575,                                 !- Year Escalation 13
  0.9596,                                 !- Year Escalation 14
  0.9618,                                 !- Year Escalation 15
  0.9614,                                 !- Year Escalation 16
  0.9618,                                 !- Year Escalation 17
  0.9618,                                 !- Year Escalation 18
  0.9593,                                 !- Year Escalation 19
  0.9589,                                 !- Year Escalation 20
  0.9607,                                 !- Year Escalation 21
  0.9625,                                 !- Year Escalation 22
  0.9650,                                 !- Year Escalation 23
  0.9708,                                 !- Year Escalation 24
  0.9751,                                 !- Year Escalation 25
  0.9762,                                 !- Year Escalation 26
  0.9766,                                 !- Year Escalation 27
  0.9766,                                 !- Year Escalation 28
  0.9769,                                 !- Year Escalation 29
  0.9773;                                 !- Year Escalation 30

LifeCycleCost:UsePriceEscalation,
  U.S. Avg  Commercial-Distillate Oil,    !- Name
  FuelOilNo1,                             !- Resource
  2011,                                   !- Escalation Start Year
  January,                                !- Escalation Start Month
  0.9714,                                 !- Year Escalation 1
  0.9730,                                 !- Year Escalation 2
  0.9942,                                 !- Year Escalation 3
  1.0164,                                 !- Year Escalation 4
  1.0541,                                 !- Year Escalation 5
  1.0928,                                 !- Year Escalation 6
  1.1267,                                 !- Year Escalation 7
  1.1580,                                 !- Year Escalation 8
  1.1792,                                 !- Year Escalation 9
  1.1967,                                 !- Year Escalation 10
  1.2200,                                 !- Year Escalation 11
  1.2333,                                 !- Year Escalation 12
  1.2566,                                 !- Year Escalation 13
  1.2709,                                 !- Year Escalation 14
  1.2826,                                 !- Year Escalation 15
  1.2985,                                 !- Year Escalation 16
  1.3102,                                 !- Year Escalation 17
  1.3250,                                 !- Year Escalation 18
  1.3261,                                 !- Year Escalation 19
  1.3282,                                 !- Year Escalation 20
  1.3324,                                 !- Year Escalation 21
  1.3356,                                 !- Year Escalation 22
  1.3431,                                 !- Year Escalation 23
  1.3510,                                 !- Year Escalation 24
  1.3568,                                 !- Year Escalation 25
  1.3606,                                 !- Year Escalation 26
  1.3637,                                 !- Year Escalation 27
  1.3674,                                 !- Year Escalation 28
  1.3706,                                 !- Year Escalation 29
  1.3743;                                 !- Year Escalation 30

LifeCycleCost:UsePriceEscalation,
  U.S. Avg  Commercial-Residual Oil,      !- Name
  FuelOilNo2,                             !- Resource
  2011,                                   !- Escalation Start Year
  January,                                !- Escalation Start Month
  0.8469,                                 !- Year Escalation 1
  0.8257,                                 !- Year Escalation 2
  0.8681,                                 !- Year Escalation 3
  0.8988,                                 !- Year Escalation 4
  0.9289,                                 !- Year Escalation 5
  0.9604,                                 !- Year Escalation 6
  0.9897,                                 !- Year Escalation 7
  1.0075,                                 !- Year Escalation 8
  1.0314,                                 !- Year Escalation 9
  1.0554,                                 !- Year Escalation 10
  1.0861,                                 !- Year Escalation 11
  1.1278,                                 !- Year Escalation 12
  1.1497,                                 !- Year Escalation 13
  1.1620,                                 !- Year Escalation 14
  1.1743,                                 !- Year Escalation 15
  1.1852,                                 !- Year Escalation 16
  1.1948,                                 !- Year Escalation 17
  1.2037,                                 !- Year Escalation 18
  1.2071,                                 !- Year Escalation 19
  1.2119,                                 !- Year Escalation 20
  1.2139,                                 !- Year Escalation 21
  1.2194,                                 !- Year Escalation 22
  1.2276,                                 !- Year Escalation 23
  1.2365,                                 !- Year Escalation 24
  1.2420,                                 !- Year Escalation 25
  1.2461,                                 !- Year Escalation 26
  1.2509,                                 !- Year Escalation 27
  1.2550,                                 !- Year Escalation 28
  1.2591,                                 !- Year Escalation 29
  1.2638;                                 !- Year Escalation 30

LifeCycleCost:UsePriceEscalation,
  U.S. Avg  Commercial-Natural gas,       !- Name
  NaturalGas,                             !- Resource
  2011,                                   !- Escalation Start Year
  January,                                !- Escalation Start Month
  0.9823,                                 !- Year Escalation 1
  0.9557,                                 !- Year Escalation 2
  0.9279,                                 !- Year Escalation 3
  0.9257,                                 !- Year Escalation 4
  0.9346,                                 !- Year Escalation 5
  0.9412,                                 !- Year Escalation 6
  0.9512,                                 !- Year Escalation 7
  0.9645,                                 !- Year Escalation 8
  0.9856,                                 !- Year Escalation 9
  1.0067,                                 !- Year Escalation 10
  1.0222,                                 !- Year Escalation 11
  1.0410,                                 !- Year Escalation 12
  1.0610,                                 !- Year Escalation 13
  1.0787,                                 !- Year Escalation 14
  1.0942,                                 !- Year Escalation 15
  1.1098,                                 !- Year Escalation 16
  1.1220,                                 !- Year Escalation 17
  1.1308,                                 !- Year Escalation 18
  1.1386,                                 !- Year Escalation 19
  1.1486,                                 !- Year Escalation 20
  1.1619,                                 !- Year Escalation 21
  1.1763,                                 !- Year Escalation 22
  1.1918,                                 !- Year Escalation 23
  1.2118,                                 !- Year Escalation 24
  1.2284,                                 !- Year Escalation 25
  1.2439,                                 !- Year Escalation 26
  1.2605,                                 !- Year Escalation 27
  1.2772,                                 !- Year Escalation 28
  1.2938,                                 !- Year Escalation 29
  1.3115;                                 !- Year Escalation 30

LifeCycleCost:UsePriceEscalation,
  U.S. Avg  Commercial-Coal,              !- Name
  Coal,                                   !- Resource
  2011,                                   !- Escalation Start Year
  January,                                !- Escalation Start Month
  0.9970,                                 !- Year Escalation 1
  1.0089,                                 !- Year Escalation 2
  1.0089,                                 !- Year Escalation 3
  0.9941,                                 !- Year Escalation 4
  0.9941,                                 !- Year Escalation 5
  1.0000,                                 !- Year Escalation 6
  1.0030,                                 !- Year Escalation 7
  1.0059,                                 !- Year Escalation 8
  1.0089,                                 !- Year Escalation 9
  1.0119,                                 !- Year Escalation 10
  1.0148,                                 !- Year Escalation 11
  1.0178,                                 !- Year Escalation 12
  1.0208,                                 !- Year Escalation 13
  1.0267,                                 !- Year Escalation 14
  1.0297,                                 !- Year Escalation 15
  1.0356,                                 !- Year Escalation 16
  1.0415,                                 !- Year Escalation 17
  1.0534,                                 !- Year Escalation 18
  1.0564,                                 !- Year Escalation 19
  1.0593,                                 !- Year Escalation 20
  1.0653,                                 !- Year Escalation 21
  1.0712,                                 !- Year Escalation 22
  1.0742,                                 !- Year Escalation 23
  1.0801,                                 !- Year Escalation 24
  1.0831,                                 !- Year Escalation 25
  1.0831,                                 !- Year Escalation 26
  1.0861,                                 !- Year Escalation 27
  1.0890,                                 !- Year Escalation 28
  1.0920,                                 !- Year Escalation 29
  1.0950;                                 !- Year Escalation 30

Building,
  Building 1,                             !- Name
  ,                                       !- North Axis {deg}
  Suburbs,                                !- Terrain
  ,                                       !- Loads Convergence Tolerance Value {W}
  ,                                       !- Temperature Convergence Tolerance Value {deltaC}
  ,                                       !- Solar Distribution
  ,                                       !- Maximum Number of Warmup Days
  ;                                       !- Minimum Number of Warmup Days

Shading:Building:Detailed,
  Neighbor azimuth 135 distance 4.0,      !- Name
  ,                                       !- Transmittance Schedule Name
  ,                                       !- Number of Vertices
  34.049144216148, -0.862104127342164, 0, !- X,Y,Z Vertex 1 {m}
  34.049144216148, -0.862104127342164, 2.7432, !- X,Y,Z Vertex 2 {m}
  0.862105490920978, -34.049144181623, 2.7432, !- X,Y,Z Vertex 3 {m}
  0.862105490920978, -34.049144181623, 0; !- X,Y,Z Vertex 4 {m}

Shading:Building:Detailed,
  Neighbor azimuth 315 distance 4.0,      !- Name
  ,                                       !- Transmittance Schedule Name
  ,                                       !- Number of Vertices
  -34.0491442391646, 0.862103218289636, 0, !- X,Y,Z Vertex 1 {m}
  -34.0491442391646, 0.862103218289636, 2.7432, !- X,Y,Z Vertex 2 {m}
  -0.862106399973577, 34.0491441586062, 2.7432, !- X,Y,Z Vertex 3 {m}
  -0.862106399973577, 34.0491441586062, 0; !- X,Y,Z Vertex 4 {m}

Shading:Building:Detailed,
  Window1 shading surface,                !- Name
  trans schedule winter=0.85 summer=0.7,  !- Transmittance Schedule Name
  ,                                       !- Number of Vertices
  23.5502290407508, 9.63724213935514, 0.3048, !- X,Y,Z Vertex 1 {m}
  23.5502290407508, 9.63724213935514, 1.493518984, !- X,Y,Z Vertex 2 {m}
  24.7825975576664, 8.40487363889054, 1.493518984, !- X,Y,Z Vertex 3 {m}
  24.7825975576664, 8.40487363889054, 0.3048; !- X,Y,Z Vertex 4 {m}

Zone,
  crawlspace - vented,                    !- Name
  ,                                       !- Direction of Relative North {deg}
  0,                                      !- X Origin {m}
  0,                                      !- Y Origin {m}
  0,                                      !- Z Origin {m}
  ,                                       !- Type
  1,                                      !- Multiplier
  ,                                       !- Ceiling Height {m}
  70.565581707264,                        !- Volume {m3}
  ,                                       !- Floor Area {m2}
  ,                                       !- Zone Inside Convection Algorithm
  ,                                       !- Zone Outside Convection Algorithm
  Yes;                                    !- Part of Total Floor Area

Space,
  crawlspace - vented 1,                  !- Name
  crawlspace - vented,                    !- Zone Name
  ,                                       !- Ceiling Height {m}
  ,                                       !- Volume {m3}
  ;                                       !- Floor Area {m2}

BuildingSurface:Detailed,
  FoundationWall1,                        !- Name
  Wall,                                   !- Surface Type
  FoundationWall1 construction,           !- Construction Name
  crawlspace - vented,                    !- Zone Name
  crawlspace - vented 1,                  !- Space Name
  Foundation,                             !- Outside Boundary Condition
  Foundation Kiva 1,                      !- Outside Boundary Condition Object
  NoSun,                                  !- Sun Exposure
  NoWind,                                 !- Wind Exposure
  ,                                       !- View Factor to Ground
  ,                                       !- Number of Vertices
  29.1782534468127, 4.00878694345842, -0.9144, !- X,Y,Z Vertex 1 {m}
  29.1782534468127, 4.00878694345842, 0.3048, !- X,Y,Z Vertex 2 {m}
  33.1870398060149, 6.37770016354011e-07, 0.3048, !- X,Y,Z Vertex 3 {m}
  33.1870398060149, 6.37770016354011e-07, -0.9144; !- X,Y,Z Vertex 4 {m}

BuildingSurface:Detailed,
  FoundationWall2,                        !- Name
  Wall,                                   !- Surface Type
  FoundationWall2 construction,           !- Construction Name
  crawlspace - vented,                    !- Zone Name
  crawlspace - vented 1,                  !- Space Name
  Adiabatic,                              !- Outside Boundary Condition
  ,                                       !- Outside Boundary Condition Object
  NoSun,                                  !- Sun Exposure
  NoWind,                                 !- Wind Exposure
  ,                                       !- View Factor to Ground
  ,                                       !- Number of Vertices
  18.4382624830547, -14.7487774727233, -0.3048, !- X,Y,Z Vertex 1 {m}
  18.4382624830547, -14.7487774727233, 0, !- X,Y,Z Vertex 2 {m}
  9.84477494192504e-07, -33.1870397097044, 0, !- X,Y,Z Vertex 3 {m}
  9.84477494192504e-07, -33.1870397097044, -0.3048; !- X,Y,Z Vertex 4 {m}

BuildingSurface:Detailed,
  RimJoist1,                              !- Name
  Wall,                                   !- Surface Type
  RimJoist1 construction,                 !- Construction Name
  crawlspace - vented,                    !- Zone Name
  crawlspace - vented 1,                  !- Space Name
  Outdoors,                               !- Outside Boundary Condition
  ,                                       !- Outside Boundary Condition Object
  SunExposed,                             !- Sun Exposure
  WindExposed,                            !- Wind Exposure
  ,                                       !- View Factor to Ground
  ,                                       !- Number of Vertices
  25.4393057692401, 7.74773445892455, 0.3048, !- X,Y,Z Vertex 1 {m}
  25.4393057692401, 7.74773445892455, 0.6096, !- X,Y,Z Vertex 2 {m}
  28.5213296905622, 4.66571057874475, 0.6096, !- X,Y,Z Vertex 3 {m}
  28.5213296905622, 4.66571057874475, 0.3048; !- X,Y,Z Vertex 4 {m}

BuildingSurface:Detailed,
  RimJoist2,                              !- Name
  Wall,                                   !- Surface Type
  RimJoist2 construction,                 !- Construction Name
  crawlspace - vented,                    !- Zone Name
  crawlspace - vented 1,                  !- Space Name
  Adiabatic,                              !- Outside Boundary Condition
  ,                                       !- Outside Boundary Condition Object
  NoSun,                                  !- Sun Exposure
  NoWind,                                 !- Wind Exposure
  ,                                       !- View Factor to Ground
  ,                                       !- Number of Vertices
  24.6557604755408, -8.53127889334045, 0.3048, !- X,Y,Z Vertex 1 {m}
  24.6557604755408, -8.53127889334045, 0.6096, !- X,Y,Z Vertex 2 {m}
  19.095185996718, -14.0918535948496, 0.6096, !- X,Y,Z Vertex 3 {m}
  19.095185996718, -14.0918535948496, 0.3048; !- X,Y,Z Vertex 4 {m}

BuildingSurface:Detailed,
  RimJoist3,                              !- Name
  Wall,                                   !- Surface Type
  RimJoist3 construction,                 !- Construction Name
  crawlspace - vented,                    !- Zone Name
  crawlspace - vented 1,                  !- Space Name
  Adiabatic,                              !- Outside Boundary Condition
  ,                                       !- Outside Boundary Condition Object
  NoSun,                                  !- Sun Exposure
  NoWind,                                 !- Wind Exposure
  ,                                       !- View Factor to Ground
  ,                                       !- Number of Vertices
  -30.1050158085938, -3.08202532788666, 0.3048, !- X,Y,Z Vertex 1 {m}
  -30.1050158085938, -3.08202532788666, 0.6096, !- X,Y,Z Vertex 2 {m}
  -33.1870398122005, -1.5299915645528e-06, 0.6096, !- X,Y,Z Vertex 3 {m}
  -33.1870398122005, -1.5299915645528e-06, 0.3048; !- X,Y,Z Vertex 4 {m}

BuildingSurface:Detailed,
  RimJoist4,                              !- Name
  Wall,                                   !- Surface Type
  RimJoist4 construction,                 !- Construction Name
  crawlspace - vented,                    !- Zone Name
  crawlspace - vented 1,                  !- Space Name
  Adiabatic,                              !- Outside Boundary Condition
  ,                                       !- Outside Boundary Condition Object
  NoSun,                                  !- Sun Exposure
  NoWind,                                 !- Wind Exposure
  ,                                       !- View Factor to Ground
  ,                                       !- Number of Vertices
  -5.56057628683144, 27.6264649456905, 0.3048, !- X,Y,Z Vertex 1 {m}
  -5.56057628683144, 27.6264649456905, 0.6096, !- X,Y,Z Vertex 2 {m}
  -1.95646623524226e-06, 33.1870397956573, 0.6096, !- X,Y,Z Vertex 3 {m}
  -1.95646623524226e-06, 33.1870397956573, 0.3048; !- X,Y,Z Vertex 4 {m}

BuildingSurface:Detailed,
  Slab1,                                  !- Name
  Floor,                                  !- Surface Type
  Slab1 construction,                     !- Construction Name
  crawlspace - vented,                    !- Zone Name
  crawlspace - vented 1,                  !- Space Name
  Foundation,                             !- Outside Boundary Condition
  Foundation Kiva 1,                      !- Outside Boundary Condition Object
  NoSun,                                  !- Sun Exposure
  NoWind,                                 !- Wind Exposure
  ,                                       !- View Factor to Ground
  ,                                       !- Number of Vertices
  -5.37952571887151, -3.59059790788763e-08, -0.9144, !- X,Y,Z Vertex 1 {m}
  -3.59059790788763e-08, 5.37952571887151, -0.9144, !- X,Y,Z Vertex 2 {m}
  5.37952571887151, 3.59059790788763e-08, -0.9144, !- X,Y,Z Vertex 3 {m}
  3.59059790788763e-08, -5.37952571887151, -0.9144; !- X,Y,Z Vertex 4 {m}

SurfaceProperty:ExposedFoundationPerimeter,
  Slab1,                                  !- Surface Name
  TotalExposedPerimeter,                  !- Exposed Perimeter Calculation Method
  5.66928,                                !- Total Exposed Perimeter {m}
  ;                                       !- Exposed Perimeter Fraction {dimensionless}

BuildingSurface:Detailed,
  Surface 1 Reversed,                     !- Name
  Ceiling,                                !- Surface Type
  Floor1 construction Reversed,           !- Construction Name
  crawlspace - vented,                    !- Zone Name
  crawlspace - vented 1,                  !- Space Name
  Surface,                                !- Outside Boundary Condition
  Floor1,                                 !- Outside Boundary Condition Object
  NoSun,                                  !- Sun Exposure
  NoWind,                                 !- Wind Exposure
  ,                                       !- View Factor to Ground
  ,                                       !- Number of Vertices
  3.59059799670547e-08, -5.37952571887151, 0.3048, !- X,Y,Z Vertex 1 {m}
  5.37952571887151, 3.59059781906979e-08, 0.3048, !- X,Y,Z Vertex 2 {m}
  -3.59059799670547e-08, 5.37952571887151, 0.3048, !- X,Y,Z Vertex 3 {m}
  -5.37952571887151, -3.59059781906979e-08, 0.3048; !- X,Y,Z Vertex 4 {m}

ZoneInfiltration:DesignFlowRate,
  infil|crawlspace - vented 1,            !- Name
  crawlspace - vented 1,                  !- Zone or ZoneList or Space or SpaceList Name
  Always On Discrete,                     !- Schedule Name
  AirChanges/Hour,                        !- Design Flow Rate Calculation Method
  ,                                       !- Design Flow Rate {m3/s}
  ,                                       !- Flow Rate per Floor Area {m3/s-m2}
  ,                                       !- Flow Rate per Exterior Surface Area {m3/s-m2}
  3.33641746483694,                       !- Air Changes per Hour {1/hr}
  1,                                      !- Constant Term Coefficient
  0,                                      !- Temperature Term Coefficient
  0,                                      !- Velocity Term Coefficient
  0;                                      !- Velocity Squared Term Coefficient

Zone,
  living space,                           !- Name
  ,                                       !- Direction of Relative North {deg}
  0,                                      !- X Origin {m}
  0,                                      !- Y Origin {m}
  0,                                      !- Z Origin {m}
  ,                                       !- Type
  1,                                      !- Multiplier
  ,                                       !- Ceiling Height {m}
  141.131163414528,                       !- Volume {m3}
  ,                                       !- Floor Area {m2}
  ,                                       !- Zone Inside Convection Algorithm
  ,                                       !- Zone Outside Convection Algorithm
  Yes;                                    !- Part of Total Floor Area

Space,
  living space 1,                         !- Name
  living space,                           !- Zone Name
  ,                                       !- Ceiling Height {m}
  ,                                       !- Volume {m3}
  ;                                       !- Floor Area {m2}

Shading:Zone:Detailed,
  Window1 - overhangs,                    !- Name
  surface Window1,                        !- Base Surface Name
  ,                                       !- Transmittance Schedule Name
  ,                                       !- Number of Vertices
  23.3344866478406, 9.85255347709434, 1.79832, !- X,Y,Z Vertex 1 {m}
  24.9979088982856, 8.18913124885465, 1.79832, !- X,Y,Z Vertex 2 {m}
  25.4289611892198, 8.62018354554305, 1.79832, !- X,Y,Z Vertex 3 {m}
  23.7655389387748, 10.2836057737827, 1.79832; !- X,Y,Z Vertex 4 {m}

BuildingSurface:Detailed,
  Floor1,                                 !- Name
  Floor,                                  !- Surface Type
  Floor1 construction,                    !- Construction Name
  living space,                           !- Zone Name
  living space 1,                         !- Space Name
  Surface,                                !- Outside Boundary Condition
  Surface 1 Reversed,                     !- Outside Boundary Condition Object
  NoSun,                                  !- Sun Exposure
  NoWind,                                 !- Wind Exposure
  ,                                       !- View Factor to Ground
  ,                                       !- Number of Vertices
  -5.37952571887151, -3.59059781906979e-08, 0.3048, !- X,Y,Z Vertex 1 {m}
  -3.59059799670547e-08, 5.37952571887151, 0.3048, !- X,Y,Z Vertex 2 {m}
  5.37952571887151, 3.59059781906979e-08, 0.3048, !- X,Y,Z Vertex 3 {m}
  3.59059799670547e-08, -5.37952571887151, 0.3048; !- X,Y,Z Vertex 4 {m}

BuildingSurface:Detailed,
  Floor2,                                 !- Name
  Ceiling,                                !- Surface Type
  Floor2 construction,                    !- Construction Name
  living space,                           !- Zone Name
  living space 1,                         !- Space Name
  Adiabatic,                              !- Outside Boundary Condition
  ,                                       !- Outside Boundary Condition Object
  NoSun,                                  !- Sun Exposure
  NoWind,                                 !- Wind Exposure
  ,                                       !- View Factor to Ground
  ,                                       !- Number of Vertices
  3.59059799670547e-08, -5.37952571887151, 0.3048, !- X,Y,Z Vertex 1 {m}
  5.37952571887151, 3.59059781906979e-08, 0.3048, !- X,Y,Z Vertex 2 {m}
  -3.59059799670547e-08, 5.37952571887151, 0.3048, !- X,Y,Z Vertex 3 {m}
  -5.37952571887151, -3.59059781906979e-08, 0.3048; !- X,Y,Z Vertex 4 {m}

BuildingSurface:Detailed,
  surface Window1,                        !- Name
  Wall,                                   !- Surface Type
  AdiabaticWallConstruction,              !- Construction Name
  living space,                           !- Zone Name
  living space 1,                         !- Space Name
  Outdoors,                               !- Outside Boundary Condition
  ,                                       !- Outside Boundary Condition Object
  SunExposed,                             !- Sun Exposure
  WindExposed,                            !- Wind Exposure
  ,                                       !- View Factor to Ground
  ,                                       !- Number of Vertices
  23.5494108508538, 9.63762927695025, 0.303947704754696, !- X,Y,Z Vertex 1 {m}
  23.5494108508538, 9.63762927695025, 1.4943712792453, !- X,Y,Z Vertex 2 {m}
  24.7829846952724, 8.40405544899875, 1.4943712792453, !- X,Y,Z Vertex 3 {m}
  24.7829846952724, 8.40405544899875, 0.303947704754696; !- X,Y,Z Vertex 4 {m}

FenestrationSurface:Detailed,
  Window1,                                !- Name
  Window,                                 !- Surface Type
  WindowConstruction,                     !- Construction Name
  surface Window1,                        !- Building Surface Name
  ,                                       !- Outside Boundary Condition Object
  ,                                       !- View Factor to Ground
  ,                                       !- Frame and Divider Name
  ,                                       !- Multiplier
  ,                                       !- Number of Vertices
  23.5500135146053, 9.63702661320675, 0.3048, !- X,Y,Z Vertex 1 {m}
  23.5500135146053, 9.63702661320675, 1.493518984, !- X,Y,Z Vertex 2 {m}
  24.7823820315209, 8.40465811274225, 1.493518984, !- X,Y,Z Vertex 3 {m}
  24.7823820315209, 8.40465811274225, 0.3048; !- X,Y,Z Vertex 4 {m}

BuildingSurface:Detailed,
  Wall1,                                  !- Name
  Wall,                                   !- Surface Type