
OS:Version,
  {c86858c6-89ab-493b-bf35-ba24cc85646d}, !- Handle
  3.6.1;                                  !- Version Identifier

OS:WeatherFile,
  {813a6dea-9993-4005-ba92-e82e187e326b}, !- Handle
  New York-Central Park Observatory-Belevedere Castle, !- City
  NY,                                     !- State Province Region
  USA,                                    !- Country
  TMY3,                                   !- Data Source
  725053,                                 !- WMO Number
  40.7793,                                !- Latitude {deg}
  -73.9691,                               !- Longitude {deg}
  -5,                                     !- Time Zone {hr}
  40,                                     !- Elevation {m}
  C:/Users/ylou2/Desktop/resstock-3.1.0/national_baseline/run12/run/../../../weather/G3600610.epw, !- Url
  361D3C57,                               !- Checksum
  ,                                       !- Start Date Actual Year
  Sunday;                                 !- Start Day of Week

OS:YearDescription,
  {f1528079-32c1-4523-ad5e-369e9cd36bb1}, !- Handle
  2007,                                   !- Calendar Year
  ,                                       !- Day of Week for Start Day
  ;                                       !- Is Leap Year

OS:Site,
  {225a9759-830e-42b3-8f5e-74edd49b11a6}, !- Handle
  New York-Central Park Observatory-Belevedere Castle_NY_USA, !- Name
  40.7793,                                !- Latitude {deg}
  -73.9691,                               !- Longitude {deg}
  -5,                                     !- Time Zone {hr}
  40,                                     !- Elevation {m}
  Suburbs;                                !- Terrain

OS:RunPeriodControl:DaylightSavingTime,
  {d692df34-89a3-409a-b611-a3a6c8371495}, !- Handle
  Mar 12,                                 !- Start Date
  Nov 5;                                  !- End Date

OS:Site:GroundTemperature:Shallow,
  {55ee9b03-94fe-4458-b74f-f44c6e8c5808}, !- Handle
  7.64674866306529,                       !- January Surface Ground Temperature {C}
  5.60199472793976,                       !- February Surface Ground Temperature {C}
  5.43824349989105,                       !- March Surface Ground Temperature {C}
  6.40858372167407,                       !- April Surface Ground Temperature {C}
  10.3039589960553,                       !- May Surface Ground Temperature {C}
  14.1811879599033,                       !- June Surface Ground Temperature {C}
  17.5425382559699,                       !- July Surface Ground Temperature {C}
  19.6718709978024,                       !- August Surface Ground Temperature {C}
  19.8527695098144,                       !- September Surface Ground Temperature {C}
  18.120915216322,                        !- October Surface Ground Temperature {C}
  14.8452813263035,                       !- November Surface Ground Temperature {C}
  11.0869899548352;                       !- December Surface Ground Temperature {C}

OS:Site:GroundTemperature:Deep,
  {c4713961-30c3-485f-9e26-61bf3c09bd85}, !- Handle
  12.4817465753425,                       !- January Deep Ground Temperature {C}
  12.4817465753425,                       !- February Deep Ground Temperature {C}
  12.4817465753425,                       !- March Deep Ground Temperature {C}
  12.4817465753425,                       !- April Deep Ground Temperature {C}
  12.4817465753425,                       !- May Deep Ground Temperature {C}
  12.4817465753425,                       !- June Deep Ground Temperature {C}
  12.4817465753425,                       !- July Deep Ground Temperature {C}
  12.4817465753425,                       !- August Deep Ground Temperature {C}
  12.4817465753425,                       !- September Deep Ground Temperature {C}
  12.4817465753425,                       !- October Deep Ground Temperature {C}
  12.4817465753425,                       !- November Deep Ground Temperature {C}
  12.4817465753425;                       !- December Deep Ground Temperature {C}

OS:SimulationControl,
  {c8219a7d-030c-4c9b-885a-45856dce9f23}, !- Handle
  ,                                       !- Do Zone Sizing Calculation
  ,                                       !- Do System Sizing Calculation
  ,                                       !- Do Plant Sizing Calculation
  No;                                     !- Run Simulation for Sizing Periods

OS:Timestep,
  {9b42724f-b31d-40ea-a569-febac1f34571}, !- Handle
  1;                                      !- Number of Timesteps per Hour

OS:ShadowCalculation,
  {7f57e9b6-4ddc-4cf0-8289-9b06f018cf53}, !- Handle
  PolygonClipping,                        !- Shading Calculation Method
  ,                                       !- Shading Calculation Update Frequency Method
  20,                                     !- Shading Calculation Update Frequency
  200,                                    !- Maximum Figures in Shadow Overlap Calculations
  ,                                       !- Polygon Clipping Algorithm
  512,                                    !- Pixel Counting Resolution
  DetailedSkyDiffuseModeling,             !- Sky Diffuse Modeling Algorithm
  No,                                     !- Output External Shading Calculation Results
  No,                                     !- Disable Self-Shading Within Shading Zone Groups
  No;                                     !- Disable Self-Shading From Shading Zone Groups to Other Zones

OS:SurfaceConvectionAlgorithm:Outside,
  {c286194b-b633-4d95-9ff1-07affb21424b}, !- Handle
  DOE-2;                                  !- Algorithm

OS:SurfaceConvectionAlgorithm:Inside,
  {7b80f9e1-c0e1-4ddb-a8ee-cd1dd544a137}, !- Handle
  TARP;                                   !- Algorithm

OS:ZoneCapacitanceMultiplier:ResearchSpecial,
  {64231222-df90-49d1-ab76-9be101ee27ea}, !- Handle
  1,                                      !- Temperature Capacity Multiplier
  15,                                     !- Humidity Capacity Multiplier
  ;                                       !- Carbon Dioxide Capacity Multiplier

OS:ConvergenceLimits,
  {4a996f14-5ef7-4a7e-aec9-aae94c715ea5}, !- Handle
  0;                                      !- Minimum System Timestep {minutes}

OS:RunPeriod,
  {789925c3-3d90-4731-a5aa-53bcb2a3829c}, !- Handle
  Run Period 1,                           !- Name
  1,                                      !- Begin Month
  1,                                      !- Begin Day of Month
  12,                                     !- End Month
  31,                                     !- End Day of Month
  ,                                       !- Use Weather File Holidays and Special Days
  ,                                       !- Use Weather File Daylight Saving Period
  ,                                       !- Apply Weekend Holiday Rule
  ,                                       !- Use Weather File Rain Indicators
  ,                                       !- Use Weather File Snow Indicators
  ;                                       !- Number of Times Runperiod to be Repeated

OS:PerformancePrecisionTradeoffs,
  {d85a3990-7485-43be-b7ce-e08358aefc63}, !- Handle
  ,                                       !- Use Coil Direct Solutions
  CarrollMRT;                             !- Zone Radiant Exchange Algorithm

OS:ThermalZone,
  {48e82cc8-6c90-4e9c-8c28-f1fb70bdd7e6}, !- Handle
  living space,                           !- Name
  ,                                       !- Multiplier
  ,                                       !- Ceiling Height {m}
  141.131163414528,                       !- Volume {m3}
  ,                                       !- Floor Area {m2}
  ,                                       !- Zone Inside Convection Algorithm
  ,                                       !- Zone Outside Convection Algorithm
  ,                                       !- Zone Conditioning Equipment List Name
  {c1a0539c-809f-41eb-ba27-2e98eaecdc9b}, !- Zone Air Inlet Port List
  {c5901844-c52b-403e-a135-126e57500fba}, !- Zone Air Exhaust Port List
  {b80a426e-6b24-4b97-a230-7afead3899db}, !- Zone Air Node Name
  {777cdc5c-22f5-4393-ba8d-3421141c7794}, !- Zone Return Air Port List
  ,                                       !- Primary Daylighting Control Name
  ,                                       !- Fraction of Zone Controlled by Primary Daylighting Control
  ,                                       !- Secondary Daylighting Control Name
  ,                                       !- Fraction of Zone Controlled by Secondary Daylighting Control
  ,                                       !- Illuminance Map Name
  ,                                       !- Group Rendering Name
  {b5185c78-759f-4bd1-acaa-bae381c2e8e7}, !- Thermostat Name
  No;                                     !- Use Ideal Air Loads

OS:Node,
  {b6450129-7eab-4861-95ce-5eb7a2a58d78}, !- Handle
  Node 1,                                 !- Name
  {b80a426e-6b24-4b97-a230-7afead3899db}, !- Inlet Port
  ;                                       !- Outlet Port

OS:Connection,
  {b80a426e-6b24-4b97-a230-7afead3899db}, !- Handle
  {48e82cc8-6c90-4e9c-8c28-f1fb70bdd7e6}, !- Source Object
  11,                                     !- Outlet Port
  {b6450129-7eab-4861-95ce-5eb7a2a58d78}, !- Target Object
  2;                                      !- Inlet Port

OS:PortList,
  {c1a0539c-809f-41eb-ba27-2e98eaecdc9b}, !- Handle
  {48e82cc8-6c90-4e9c-8c28-f1fb70bdd7e6}, !- HVAC Component
  {abb5202d-9d1f-4c52-8702-5da8791471f5}, !- Port 1
  {531837c8-0c3c-418c-b602-c7eb1d10bb93}; !- Port 2

OS:PortList,
  {c5901844-c52b-403e-a135-126e57500fba}, !- Handle
  {48e82cc8-6c90-4e9c-8c28-f1fb70bdd7e6}, !- HVAC Component
  {e327f699-b82d-474d-bb5b-c5eeea5d3cca}; !- Port 1

OS:PortList,
  {777cdc5c-22f5-4393-ba8d-3421141c7794}, !- Handle
  {48e82cc8-6c90-4e9c-8c28-f1fb70bdd7e6}, !- HVAC Component
  {d6ee9a48-d944-42df-8b8d-48f33e55c838}; !- Port 1

OS:Sizing:Zone,
  {3e29624b-87d5-485b-9fa8-121fd603225b}, !- Handle
  {48e82cc8-6c90-4e9c-8c28-f1fb70bdd7e6}, !- Zone or ZoneList Name
  SupplyAirTemperature,                   !- Zone Cooling Design Supply Air Temperature Input Method
  14,                                     !- Zone Cooling Design Supply Air Temperature {C}
  11.11,                                  !- Zone Cooling Design Supply Air Temperature Difference {deltaC}
  SupplyAirTemperature,                   !- Zone Heating Design Supply Air Temperature Input Method
  40,                                     !- Zone Heating Design Supply Air Temperature {C}
  11.11,                                  !- Zone Heating Design Supply Air Temperature Difference {deltaC}
  0.0085,                                 !- Zone Cooling Design Supply Air Humidity Ratio {kg-H2O/kg-air}
  0.008,                                  !- Zone Heating Design Supply Air Humidity Ratio {kg-H2O/kg-air}
  ,                                       !- Zone Heating Sizing Factor
  ,                                       !- Zone Cooling Sizing Factor
  DesignDay,                              !- Cooling Design Air Flow Method
  ,                                       !- Cooling Design Air Flow Rate {m3/s}
  ,                                       !- Cooling Minimum Air Flow per Zone Floor Area {m3/s-m2}
  ,                                       !- Cooling Minimum Air Flow {m3/s}
  ,                                       !- Cooling Minimum Air Flow Fraction
  DesignDay,                              !- Heating Design Air Flow Method
  ,                                       !- Heating Design Air Flow Rate {m3/s}
  ,                                       !- Heating Maximum Air Flow per Zone Floor Area {m3/s-m2}
  ,                                       !- Heating Maximum Air Flow {m3/s}
  ,                                       !- Heating Maximum Air Flow Fraction
  No,                                     !- Account for Dedicated Outdoor Air System
  NeutralSupplyAir,                       !- Dedicated Outdoor Air System Control Strategy
  autosize,                               !- Dedicated Outdoor Air Low Setpoint Temperature for Design {C}
  autosize,                               !- Dedicated Outdoor Air High Setpoint Temperature for Design {C}
  Sensible Load Only No Latent Load,      !- Zone Load Sizing Method
  HumidityRatioDifference,                !- Zone Latent Cooling Design Supply Air Humidity Ratio Input Method
  ,                                       !- Zone Dehumidification Design Supply Air Humidity Ratio {kgWater/kgDryAir}
  0.005,                                  !- Zone Cooling Design Supply Air Humidity Ratio Difference {kgWater/kgDryAir}
  HumidityRatioDifference,                !- Zone Latent Heating Design Supply Air Humidity Ratio Input Method
  ,                                       !- Zone Humidification Design Supply Air Humidity Ratio {kgWater/kgDryAir}
  0.005;                                  !- Zone Humidification Design Supply Air Humidity Ratio Difference {kgWater/kgDryAir}

OS:ZoneHVAC:EquipmentList,
  {7d9e0b45-3a4d-414d-ba3c-09aa07f16b9d}, !- Handle
  Zone HVAC Equipment List 1,             !- Name
  {48e82cc8-6c90-4e9c-8c28-f1fb70bdd7e6}, !- Thermal Zone
  ,                                       !- Load Distribution Scheme
  {e8b1fa64-bbe0-4bd1-9f37-6af5473e1313}, !- Zone Equipment 1
  1,                                      !- Zone Equipment Cooling Sequence 1
  1,                                      !- Zone Equipment Heating or No-Load Sequence 1
  {4f714992-755c-4b4f-a9fa-39da12e10c7a}, !- Zone Equipment Sequential Cooling Fraction Schedule Name 1
  {3d448c91-98c0-4b92-9a66-14c6b1d95cf7}, !- Zone Equipment Sequential Heating Fraction Schedule Name 1
  {370cac2b-2c37-47fd-b34d-fab5b09b267d}, !- Zone Equipment 2
  2,                                      !- Zone Equipment Cooling Sequence 2
  2,                                      !- Zone Equipment Heating or No-Load Sequence 2
  {4a204bb0-d95c-4681-a5b8-1319621e579e}, !- Zone Equipment Sequential Cooling Fraction Schedule Name 2
  {245c2813-b2ca-45a0-b84c-d325220702e9}, !- Zone Equipment Sequential Heating Fraction Schedule Name 2
  {4f2ac113-6bf7-4b07-acba-f14ec696e651}, !- Zone Equipment 3
  3,                                      !- Zone Equipment Cooling Sequence 3
  3,                                      !- Zone Equipment Heating or No-Load Sequence 3
  {f7ce9a22-a5ed-47cc-9fae-cd49c85c9109}, !- Zone Equipment Sequential Cooling Fraction Schedule Name 3
  {8d272f2d-9181-408f-afbf-e13fe55a5594}; !- Zone Equipment Sequential Heating Fraction Schedule Name 3

OS:Space,
  {be13feff-becd-419b-864b-23a375eb01f7}, !- Handle
  living space 1,                         !- Name
  ,                                       !- Space Type Name
  ,                                       !- Default Construction Set Name
  ,                                       !- Default Schedule Set Name
  ,                                       !- Direction of Relative North {deg}
  ,                                       !- X Origin {m}
  ,                                       !- Y Origin {m}
  ,                                       !- Z Origin {m}
  ,                                       !- Building Story Name
  {48e82cc8-6c90-4e9c-8c28-f1fb70bdd7e6}; !- Thermal Zone Name

OS:Schedule:Ruleset,
  {549a2aee-d67f-40c1-a300-3e5e1fa57531}, !- Handle
  heating setpoint,                       !- Name
  {63de750e-44a8-4994-b9b7-45f4841ccdff}, !- Schedule Type Limits Name
  {44fc3dc0-0011-45a7-8283-fda884e050e6}; !- Default Day Schedule Name

OS:Schedule:Day,
  {44fc3dc0-0011-45a7-8283-fda884e050e6}, !- Handle
  heating setpoint default day,           !- Name
  {63de750e-44a8-4994-b9b7-45f4841ccdff}, !- Schedule Type Limits Name
  ,                                       !- Interpolate to Timestep
  24,                                     !- Hour 1
  0,                                      !- Minute 1
  0;                                      !- Value Until Time 1

OS:Schedule:Rule,
  {80ed7753-cca8-4267-9812-6e534b5e32d1}, !- Handle
  heating setpoint allday ruleset1,       !- Name
  {549a2aee-d67f-40c1-a300-3e5e1fa57531}, !- Schedule Ruleset Name
  0,                                      !- Rule Order
  {30c5fc30-3a9c-4cf9-bec0-90d715abbc8f}, !- Day Schedule Name
  Yes,                                    !- Apply Sunday
  Yes,                                    !- Apply Monday
  Yes,                                    !- Apply Tuesday
  Yes,                                    !- Apply Wednesday
  Yes,                                    !- Apply Thursday
  Yes,                                    !- Apply Friday
  Yes,                                    !- Apply Saturday
  DateRange,                              !- Date Specification Type
  1,                                      !- Start Month
  1,                                      !- Start Day
  12,                                     !- End Month
  31;                                     !- End Day

OS:Schedule:Day,
  {30c5fc30-3a9c-4cf9-bec0-90d715abbc8f}, !- Handle
  heating setpoint allday1,               !- Name
  {63de750e-44a8-4994-b9b7-45f4841ccdff}, !- Schedule Type Limits Name
  ,                                       !- Interpolate to Timestep
  24,                                     !- Hour 1
  0,                                      !- Minute 1
  20;                                     !- Value Until Time 1

OS:Schedule:Ruleset,
  {25706770-1dca-4cdf-a0af-e794445a4721}, !- Handle
  cooling setpoint,                       !- Name
  {63de750e-44a8-4994-b9b7-45f4841ccdff}, !- Schedule Type Limits Name
  {bcb29aba-aa7b-4007-bedd-6577dd656dbc}; !- Default Day Schedule Name

OS:Schedule:Day,
  {bcb29aba-aa7b-4007-bedd-6577dd656dbc}, !- Handle
  cooling setpoint default day,           !- Name
  {63de750e-44a8-4994-b9b7-45f4841ccdff}, !- Schedule Type Limits Name
  ,                                       !- Interpolate to Timestep
  24,                                     !- Hour 1
  0,                                      !- Minute 1
  0;                                      !- Value Until Time 1

OS:Schedule:Rule,
  {1a128eee-d76b-4780-81fe-14c4f27ebcdd}, !- Handle
  cooling setpoint weekday ruleset1,      !- Name
  {25706770-1dca-4cdf-a0af-e794445a4721}, !- Schedule Ruleset Name
  1,                                      !- Rule Order
  {40d15c4d-a851-4a18-89e8-1a1825267359}, !- Day Schedule Name
  ,                                       !- Apply Sunday
  Yes,                                    !- Apply Monday
  Yes,                                    !- Apply Tuesday
  Yes,                                    !- Apply Wednesday
  Yes,                                    !- Apply Thursday
  Yes,                                    !- Apply Friday
  ,                                       !- Apply Saturday
  DateRange,                              !- Date Specification Type
  1,                                      !- Start Month
  1,                                      !- Start Day
  12,                                     !- End Month
  31;                                     !- End Day

OS:Schedule:Day,
  {40d15c4d-a851-4a18-89e8-1a1825267359}, !- Handle
  cooling setpoint weekday1,              !- Name
  {63de750e-44a8-4994-b9b7-45f4841ccdff}, !- Schedule Type Limits Name
  ,                                       !- Interpolate to Timestep
  12,                                     !- Hour 1
  0,                                      !- Minute 1
  21.1111111111111,                       !- Value Until Time 1
  20,                                     !- Hour 2
  0,                                      !- Minute 2
  26.1111111111111,                       !- Value Until Time 2
  24,                                     !- Hour 3
  0,                                      !- Minute 3
  21.1111111111111;                       !- Value Until Time 3

OS:Schedule:Rule,
  {d2eb49bd-f7cf-4146-8b1f-2441f022e3dd}, !- Handle
  cooling setpoint weekend ruleset1,      !- Name
  {25706770-1dca-4cdf-a0af-e794445a4721}, !- Schedule Ruleset Name
  0,                                      !- Rule Order
  {f10e9a3d-feed-455a-9b37-5bdde8803598}, !- Day Schedule Name
  Yes,                                    !- Apply Sunday
  ,                                       !- Apply Monday
  ,                                       !- Apply Tuesday
  ,                                       !- Apply Wednesday
  ,                                       !- Apply Thursday
  ,                                       !- Apply Friday
  Yes,                                    !- Apply Saturday
  DateRange,                              !- Date Specification Type
  1,                                      !- Start Month
  1,                                      !- Start Day
  12,                                     !- End Month
  31;                                     !- End Day

OS:Schedule:Day,
  {f10e9a3d-feed-455a-9b37-5bdde8803598}, !- Handle
  cooling setpoint weekend1,              !- Name
  {63de750e-44a8-4994-b9b7-45f4841ccdff}, !- Schedule Type Limits Name
  ,                                       !- Interpolate to Timestep
  24,                                     !- Hour 1
  0,                                      !- Minute 1
  21.1111111111111;                       !- Value Until Time 1

OS:ThermostatSetpoint:DualSetpoint,
  {b5185c78-759f-4bd1-acaa-bae381c2e8e7}, !- Handle
  living space temperature setpoint,      !- Name
  {549a2aee-d67f-40c1-a300-3e5e1fa57531}, !- Heating Setpoint Temperature Schedule Name
  {25706770-1dca-4cdf-a0af-e794445a4721}; !- Cooling Setpoint Temperature Schedule Name

OS:ScheduleTypeLimits,
  {63de750e-44a8-4994-b9b7-45f4841ccdff}, !- Handle
  Temperature,                            !- Name
  ,                                       !- Lower Limit Value
  ,                                       !- Upper Limit Value
  Continuous,                             !- Numeric Type
  Temperature;                            !- Unit Type

OS:Surface,
  {5cb8de79-facd-400e-99fc-829c4f61d7ac}, !- Handle
  Wall1,                                  !- Name
  Wall,                                   !- Surface Type
  {eb80d3b7-08f5-45f1-975a-7d6c341925e5}, !- Construction Name
  {be13feff-becd-419b-864b-23a375eb01f7}, !- Space Name
  Outdoors,                               !- Outside Boundary Condition
  ,                                       !- Outside Boundary Condition Object
  SunExposed,                             !- Sun Exposure
  WindExposed,                            !- Wind Exposure
  ,                                       !- View Factor to Ground
  ,                                       !- Number of Vertices
  19.4850825540177, 13.7019574400475, 0.3048, !- X,Y,Z Vertex 1 {m}
  19.4850825540177, 13.7019574400475, 2.7432, !- X,Y,Z Vertex 2 {m}
  22.8930897747104, 10.2939502648487, 2.7432, !- X,Y,Z Vertex 3 {m}
  22.8930897747104, 10.2939502648487, 0.3048; !- X,Y,Z Vertex 4 {m}

OS:AdditionalProperties,
  {eecded4a-1d17-4392-9b74-27dba7bfe80a}, !- Handle
  {5cb8de79-facd-400e-99fc-829c4f61d7ac}, !- Object Name
  Length,                                 !- Feature Name 1
  Double,                                 !- Feature Data Type 1
  15.812500000000002,                     !- Feature Value 1
  Azimuth,                                !- Feature Name 2
  Integer,                                !- Feature Data Type 2
  45,                                     !- Feature Value 2
  Tilt,                                   !- Feature Name 3
  Double,                                 !- Feature Data Type 3
  90,                                     !- Feature Value 3
  SurfaceType,                            !- Feature Name 4
  String,                                 !- Feature Data Type 4
  Wall;                                   !- Feature Value 4

OS:Material,
  {d3b5af2b-2f8a-4ed1-9ab5-4360f4bb1339}, !- Handle
  osb sheathing 0.5 in.,                  !- Name
  Rough,                                  !- Roughness
  0.0127,                                 !- Thickness {m}
  0.1154577,                              !- Conductivity {W/m-K}
  512.64,                                 !- Density {kg/m3}
  1214.23,                                !- Specific Heat {J/kg-K}
  0.9,                                    !- Thermal Absorptance
  0.7,                                    !- Solar Absorptance
  0.7;                                    !- Visible Absorptance

OS:Material,
  {7cf462a6-5552-4219-b3e0-fdd45f6b8586}, !- Handle
  wall layer 1,                           !- Name
  Rough,                                  !- Roughness
  0.2032,                                 !- Thickness {m}
  0.391405582567229,                      !- Conductivity {W/m-K}
  1762.2,                                 !- Density {kg/m3}
  795.53,                                 !- Specific Heat {J/kg-K}
  0.9,                                    !- Thermal Absorptance
  0.7,                                    !- Solar Absorptance
  0.7;                                    !- Visible Absorptance

OS:Material,
  {e418649e-31ea-4d23-b07e-a3e374ecd0a5}, !- Handle
  gypsum board,                           !- Name
  Rough,                                  !- Roughness
  0.0127,                                 !- Thickness {m}
  0.1602906,                              !- Conductivity {W/m-K}
  801,                                    !- Density {kg/m3}
  837.4,                                  !- Specific Heat {J/kg-K}
  0.9,                                    !- Thermal Absorptance
  0.6,                                    !- Solar Absorptance
  0.6;                                    !- Visible Absorptance

OS:Construction,
  {eb80d3b7-08f5-45f1-975a-7d6c341925e5}, !- Handle
  Wall1 construction,                     !- Name
  ,                                       !- Surface Rendering Name
  {d3b5af2b-2f8a-4ed1-9ab5-4360f4bb1339}, !- Layer 1
  {7cf462a6-5552-4219-b3e0-fdd45f6b8586}, !- Layer 2
  {e418649e-31ea-4d23-b07e-a3e374ecd0a5}; !- Layer 3

OS:Surface,
  {263bf4f9-60ed-4abd-ac0c-9b54b53cf4b0}, !- Handle
  Wall2,                                  !- Name
  Wall,                                   !- Surface Type
  {9496adb2-4d3c-4274-a9f1-d9405bb4038a}, !- Construction Name
  {be13feff-becd-419b-864b-23a375eb01f7}, !- Space Name
  Adiabatic,                              !- Outside Boundary Condition
  ,                                       !- Outside Boundary Condition Object
  NoSun,                                  !- Sun Exposure
  NoWind,                                 !- Wind Exposure
  ,                                       !- View Factor to Ground
  ,                                       !- Number of Vertices
  32.530115764082, -0.65692310133816, 0.3048, !- X,Y,Z Vertex 1 {m}
  32.530115764082, -0.65692310133816, 2.7432, !- X,Y,Z Vertex 2 {m}
  25.3126840640983, -7.87435509036106, 2.7432, !- X,Y,Z Vertex 3 {m}
  25.3126840640983, -7.87435509036106, 0.3048; !- X,Y,Z Vertex 4 {m}

OS:AdditionalProperties,
  {e8cefb4c-4595-4d01-a43c-7b82a0ab55a4}, !- Handle
  {263bf4f9-60ed-4abd-ac0c-9b54b53cf4b0}, !- Object Name
  Length,                                 !- Feature Name 1
  Double,                                 !- Feature Data Type 1
  33.487499999999997,                     !- Feature Value 1
  Azimuth,                                !- Feature Name 2
  Integer,                                !- Feature Data Type 2
  135,                                    !- Feature Value 2
  Tilt,                                   !- Feature Name 3
  Double,                                 !- Feature Data Type 3
  90,                                     !- Feature Value 3
  SurfaceType,                            !- Feature Name 4
  String,                                 !- Feature Data Type 4
  Wall;                                   !- Feature Value 4

OS:Material,
  {70df60ad-d72f-4a71-9c78-ffedae8b9b11}, !- Handle
  osb sheathing 0.5 in. 1,                !- Name
  Rough,                                  !- Roughness
  0.0127,                                 !- Thickness {m}
  0.1154577,                              !- Conductivity {W/m-K}
  512.64,                                 !- Density {kg/m3}
  1214.23;                                !- Specific Heat {J/kg-K}

OS:Material,
  {646838b1-758a-4e5c-96f3-aed87f0c049b}, !- Handle
  wall layer 2,                           !- Name
  Rough,                                  !- Roughness
  0.2032,                                 !- Thickness {m}
  0.737216100603452,                      !- Conductivity {W/m-K}
  1762.2,                                 !- Density {kg/m3}
  795.53,                                 !- Specific Heat {J/kg-K}
  0.9,                                    !- Thermal Absorptance
  0.7,                                    !- Solar Absorptance
  0.7;                                    !- Visible Absorptance

OS:Construction,
  {9496adb2-4d3c-4274-a9f1-d9405bb4038a}, !- Handle
  Wall2 construction,                     !- Name
  ,                                       !- Surface Rendering Name
  {70df60ad-d72f-4a71-9c78-ffedae8b9b11}, !- Layer 1
  {646838b1-758a-4e5c-96f3-aed87f0c049b}, !- Layer 2
  {e418649e-31ea-4d23-b07e-a3e374ecd0a5}; !- Layer 3

OS:Surface,
  {760085aa-2499-4e31-b543-b2361d99ffa8}, !- Handle
  Wall3,                                  !- Name
  Wall,                                   !- Surface Type
  {c2200db7-4399-4e88-bff5-b13679100800}, !- Construction Name
  {be13feff-becd-419b-864b-23a375eb01f7}, !- Space Name
  Adiabatic,                              !- Outside Boundary Condition
  ,                                       !- Outside Boundary Condition Object
  NoSun,                                  !- Sun Exposure
  NoWind,                                 !- Wind Exposure
  ,                                       !- View Factor to Ground