
OS:Version,
  {ec8fe31a-291b-437c-a179-d46d65bec1a2}, !- Handle
  3.6.1;                                  !- Version Identifier

OS:WeatherFile,
  {e7d22e6f-763a-49bd-9855-b7e8b8839955}, !- Handle
  Gulfport-Biloxi Intl AP,                !- City
  MS,                                     !- State Province Region
  USA,                                    !- Country
  TMY3,                                   !- Data Source
  747570,                                 !- WMO Number
  30.4,                                   !- Latitude {deg}
  -89.067,                                !- Longitude {deg}
  -6,                                     !- Time Zone {hr}
  9,                                      !- Elevation {m}
  C:/Users/ylou2/Desktop/resstock-3.1.0/national_baseline/run3/run/../../../weather/G2800470.epw, !- Url
  883A13F9,                               !- Checksum
  ,                                       !- Start Date Actual Year
  Sunday;                                 !- Start Day of Week

OS:YearDescription,
  {f6fb1b29-ebc7-4fa0-a531-7659b3902eaf}, !- Handle
  2007,                                   !- Calendar Year
  ,                                       !- Day of Week for Start Day
  ;                                       !- Is Leap Year

OS:Site,
  {a54fe6b7-9f9c-4abe-a0ac-7ef59f7e1037}, !- Handle
  Gulfport-Biloxi Intl AP_MS_USA,         !- Name
  30.4,                                   !- Latitude {deg}
  -89.067,                                !- Longitude {deg}
  -6,                                     !- Time Zone {hr}
  9,                                      !- Elevation {m}
  Suburbs;                                !- Terrain

OS:RunPeriodControl:DaylightSavingTime,
  {c8f3e8c1-087b-4dfd-afdd-dd6e0b74d6e0}, !- Handle
  Mar 12,                                 !- Start Date
  Nov 5;                                  !- End Date

OS:Site:GroundTemperature:Shallow,
  {b596317a-663f-41e7-bb28-38e8bed05b9b}, !- Handle
  16.7720275803981,                       !- January Surface Ground Temperature {C}
  15.5043928083015,                       !- February Surface Ground Temperature {C}
  15.4028760697432,                       !- March Surface Ground Temperature {C}
  16.004433540677,                        !- April Surface Ground Temperature {C}
  18.4193515723022,                       !- May Surface Ground Temperature {C}
  20.8230198912739,                       !- June Surface Ground Temperature {C}
  22.9068718615746,                       !- July Surface Ground Temperature {C}
  24.2269408334653,                       !- August Surface Ground Temperature {C}
  24.3390879432509,                       !- September Surface Ground Temperature {C}
  23.2654337079304,                       !- October Surface Ground Temperature {C}
  21.2347211863327,                       !- November Surface Ground Temperature {C}
  18.9047876210739;                       !- December Surface Ground Temperature {C}

OS:Site:GroundTemperature:Deep,
  {e51ab43b-daba-4344-890a-43df5d1b5b29}, !- Handle
  19.6997831050228,                       !- January Deep Ground Temperature {C}
  19.6997831050228,                       !- February Deep Ground Temperature {C}
  19.6997831050228,                       !- March Deep Ground Temperature {C}
  19.6997831050228,                       !- April Deep Ground Temperature {C}
  19.6997831050228,                       !- May Deep Ground Temperature {C}
  19.6997831050228,                       !- June Deep Ground Temperature {C}
  19.6997831050228,                       !- July Deep Ground Temperature {C}
  19.6997831050228,                       !- August Deep Ground Temperature {C}
  19.6997831050228,                       !- September Deep Ground Temperature {C}
  19.6997831050228,                       !- October Deep Ground Temperature {C}
  19.6997831050228,                       !- November Deep Ground Temperature {C}
  19.6997831050228;                       !- December Deep Ground Temperature {C}

OS:SimulationControl,
  {09224925-38b4-4a29-b413-021da0648b57}, !- Handle
  ,                                       !- Do Zone Sizing Calculation
  ,                                       !- Do System Sizing Calculation
  ,                                       !- Do Plant Sizing Calculation
  No;                                     !- Run Simulation for Sizing Periods

OS:Timestep,
  {b7c9a216-5767-4eb9-bd1c-576fb121be24}, !- Handle
  1;                                      !- Number of Timesteps per Hour

OS:ShadowCalculation,
  {9cf9120b-e83f-4e07-945d-6bed478dcf1c}, !- Handle
  PolygonClipping,                        !- Shading Calculation Method
  ,                                       !- Shading Calculation Update Frequency Method
  20,                                     !- Shading Calculation Update Frequency
  200,                                    !- Maximum Figures in Shadow Overlap Calculations
  ,                                       !- Polygon Clipping Algorithm
  512,                                    !- Pixel Counting Resolution
  DetailedSkyDiffuseModeling,             !- Sky Diffuse Modeling Algorithm
  No,                                     !- Output External Shading Calculation Results
  No,                                     !- Disable Self-Shading Within Shading Zone Groups
  No;                                     !- Disable Self-Shading From Shading Zone Groups to Other Zones

OS:SurfaceConvectionAlgorithm:Outside,
  {2a20a6ac-57bb-4be4-a4d7-167ffcc9a049}, !- Handle
  DOE-2;                                  !- Algorithm

OS:SurfaceConvectionAlgorithm:Inside,
  {6863b510-dba1-4daf-96cc-e12054e87de2}, !- Handle
  TARP;                                   !- Algorithm

OS:ZoneCapacitanceMultiplier:ResearchSpecial,
  {680d6dc1-9b10-4e8e-83e1-e3bee0d189a5}, !- Handle
  1,                                      !- Temperature Capacity Multiplier
  15,                                     !- Humidity Capacity Multiplier
  ;                                       !- Carbon Dioxide Capacity Multiplier

OS:ConvergenceLimits,
  {9860539c-1002-4ea4-9603-bc6af83b3973}, !- Handle
  0;                                      !- Minimum System Timestep {minutes}

OS:RunPeriod,
  {c09b28be-3c66-429f-a597-93f7453d6d4c}, !- Handle
  Run Period 1,                           !- Name
  1,                                      !- Begin Month
  1,                                      !- Begin Day of Month
  12,                                     !- End Month
  31,                                     !- End Day of Month
  ,                                       !- Use Weather File Holidays and Special Days
  ,                                       !- Use Weather File Daylight Saving Period
  ,                                       !- Apply Weekend Holiday Rule
  ,                                       !- Use Weather File Rain Indicators
  ,                                       !- Use Weather File Snow Indicators
  ;                                       !- Number of Times Runperiod to be Repeated

OS:PerformancePrecisionTradeoffs,
  {fd9fdf6a-7e49-48e6-bb71-ae70c300d66a}, !- Handle
  ,                                       !- Use Coil Direct Solutions
  CarrollMRT;                             !- Zone Radiant Exchange Algorithm

OS:ThermalZone,
  {5ebc82d8-e95f-430b-8da5-bb0f2c00e783}, !- Handle
  living space,                           !- Name
  ,                                       !- Multiplier
  ,                                       !- Ceiling Height {m}
  384.656044105728,                       !- Volume {m3}
  ,                                       !- Floor Area {m2}
  ,                                       !- Zone Inside Convection Algorithm
  ,                                       !- Zone Outside Convection Algorithm
  ,                                       !- Zone Conditioning Equipment List Name
  {3b949682-3e72-4177-a2d2-4fefdf386121}, !- Zone Air Inlet Port List
  {9ad19bad-c1d8-43d9-89ba-bd08825cc4ee}, !- Zone Air Exhaust Port List
  {bd4f5d7d-de6d-4847-a37a-e6a2e62b9b3f}, !- Zone Air Node Name
  {d15757ed-9c4b-4b38-ad7c-4dc4bba15e42}, !- Zone Return Air Port List
  ,                                       !- Primary Daylighting Control Name
  ,                                       !- Fraction of Zone Controlled by Primary Daylighting Control
  ,                                       !- Secondary Daylighting Control Name
  ,                                       !- Fraction of Zone Controlled by Secondary Daylighting Control
  ,                                       !- Illuminance Map Name
  ,                                       !- Group Rendering Name
  {0a396f26-9e7d-43d0-9e5f-3c50e966c192}, !- Thermostat Name
  No;                                     !- Use Ideal Air Loads

OS:Node,
  {393ec822-96e6-4b6e-9364-801cb9e877bf}, !- Handle
  Node 1,                                 !- Name
  {bd4f5d7d-de6d-4847-a37a-e6a2e62b9b3f}, !- Inlet Port
  ;                                       !- Outlet Port

OS:Connection,
  {bd4f5d7d-de6d-4847-a37a-e6a2e62b9b3f}, !- Handle
  {5ebc82d8-e95f-430b-8da5-bb0f2c00e783}, !- Source Object
  11,                                     !- Outlet Port
  {393ec822-96e6-4b6e-9364-801cb9e877bf}, !- Target Object
  2;                                      !- Inlet Port

OS:PortList,
  {3b949682-3e72-4177-a2d2-4fefdf386121}, !- Handle
  {5ebc82d8-e95f-430b-8da5-bb0f2c00e783}, !- HVAC Component
  {8c4333c1-f813-403b-a48d-7e6614636039}; !- Port 1

OS:PortList,
  {9ad19bad-c1d8-43d9-89ba-bd08825cc4ee}, !- Handle
  {5ebc82d8-e95f-430b-8da5-bb0f2c00e783}; !- HVAC Component

OS:PortList,
  {d15757ed-9c4b-4b38-ad7c-4dc4bba15e42}, !- Handle
  {5ebc82d8-e95f-430b-8da5-bb0f2c00e783}, !- HVAC Component
  {d8a9753e-bd6f-4986-8b0f-bbffec71a4dd}; !- Port 1

OS:Sizing:Zone,
  {b4e47cf6-4baf-4b1d-a20a-ddda164cb9dc}, !- Handle
  {5ebc82d8-e95f-430b-8da5-bb0f2c00e783}, !- Zone or ZoneList Name
  SupplyAirTemperature,                   !- Zone Cooling Design Supply Air Temperature Input Method
  14,                                     !- Zone Cooling Design Supply Air Temperature {C}
  11.11,                                  !- Zone Cooling Design Supply Air Temperature Difference {deltaC}
  SupplyAirTemperature,                   !- Zone Heating Design Supply Air Temperature Input Method
  40,                                     !- Zone Heating Design Supply Air Temperature {C}
  11.11,                                  !- Zone Heating Design Supply Air Temperature Difference {deltaC}
  0.0085,                                 !- Zone Cooling Design Supply Air Humidity Ratio {kg-H2O/kg-air}
  0.008,                                  !- Zone Heating Design Supply Air Humidity Ratio {kg-H2O/kg-air}
  ,                                       !- Zone Heating Sizing Factor
  ,                                       !- Zone Cooling Sizing Factor
  DesignDay,                              !- Cooling Design Air Flow Method
  ,                                       !- Cooling Design Air Flow Rate {m3/s}
  ,                                       !- Cooling Minimum Air Flow per Zone Floor Area {m3/s-m2}
  ,                                       !- Cooling Minimum Air Flow {m3/s}
  ,                                       !- Cooling Minimum Air Flow Fraction
  DesignDay,                              !- Heating Design Air Flow Method
  ,                                       !- Heating Design Air Flow Rate {m3/s}
  ,                                       !- Heating Maximum Air Flow per Zone Floor Area {m3/s-m2}
  ,                                       !- Heating Maximum Air Flow {m3/s}
  ,                                       !- Heating Maximum Air Flow Fraction
  No,                                     !- Account for Dedicated Outdoor Air System
  NeutralSupplyAir,                       !- Dedicated Outdoor Air System Control Strategy
  autosize,                               !- Dedicated Outdoor Air Low Setpoint Temperature for Design {C}
  autosize,                               !- Dedicated Outdoor Air High Setpoint Temperature for Design {C}
  Sensible Load Only No Latent Load,      !- Zone Load Sizing Method
  HumidityRatioDifference,                !- Zone Latent Cooling Design Supply Air Humidity Ratio Input Method
  ,                                       !- Zone Dehumidification Design Supply Air Humidity Ratio {kgWater/kgDryAir}
  0.005,                                  !- Zone Cooling Design Supply Air Humidity Ratio Difference {kgWater/kgDryAir}
  HumidityRatioDifference,                !- Zone Latent Heating Design Supply Air Humidity Ratio Input Method
  ,                                       !- Zone Humidification Design Supply Air Humidity Ratio {kgWater/kgDryAir}
  0.005;                                  !- Zone Humidification Design Supply Air Humidity Ratio Difference {kgWater/kgDryAir}

OS:ZoneHVAC:EquipmentList,
  {9ee2d9c0-a7af-4424-ab5f-2143a172e16d}, !- Handle
  Zone HVAC Equipment List 1,             !- Name
  {5ebc82d8-e95f-430b-8da5-bb0f2c00e783}, !- Thermal Zone
  ,                                       !- Load Distribution Scheme
  {f02f9937-6e1b-48a9-933c-d79237188f3a}, !- Zone Equipment 1
  1,                                      !- Zone Equipment Cooling Sequence 1
  1,                                      !- Zone Equipment Heating or No-Load Sequence 1
  {1b3ade34-6c4d-4b0b-b9c2-3dcc816ef2de}, !- Zone Equipment Sequential Cooling Fraction Schedule Name 1
  {3b51f6e4-0982-453f-a192-b2b612627d89}; !- Zone Equipment Sequential Heating Fraction Schedule Name 1

OS:Space,
  {d598b1be-f651-4c75-8041-1170d612df7e}, !- Handle
  living space 1,                         !- Name
  ,                                       !- Space Type Name
  ,                                       !- Default Construction Set Name
  ,                                       !- Default Schedule Set Name
  ,                                       !- Direction of Relative North {deg}
  ,                                       !- X Origin {m}
  ,                                       !- Y Origin {m}
  ,                                       !- Z Origin {m}
  ,                                       !- Building Story Name
  {5ebc82d8-e95f-430b-8da5-bb0f2c00e783}; !- Thermal Zone Name

OS:Schedule:Ruleset,
  {f243b6bb-ad78-41cc-baa5-d0361e7fbc2f}, !- Handle
  heating setpoint,                       !- Name
  {4a2bd0cf-4ef8-4726-a026-4f0a3821b7f5}, !- Schedule Type Limits Name
  {affd3559-1b62-414a-b70b-9caa14090330}; !- Default Day Schedule Name

OS:Schedule:Day,
  {affd3559-1b62-414a-b70b-9caa14090330}, !- Handle
  heating setpoint default day,           !- Name
  {4a2bd0cf-4ef8-4726-a026-4f0a3821b7f5}, !- Schedule Type Limits Name
  ,                                       !- Interpolate to Timestep
  24,                                     !- Hour 1
  0,                                      !- Minute 1
  0;                                      !- Value Until Time 1

OS:Schedule:Rule,
  {0acce50b-ef61-4fb2-8654-401b31e93670}, !- Handle
  heating setpoint allday ruleset1,       !- Name
  {f243b6bb-ad78-41cc-baa5-d0361e7fbc2f}, !- Schedule Ruleset Name
  0,                                      !- Rule Order
  {50430550-b338-40a6-9a8b-41c8259a363b}, !- Day Schedule Name
  Yes,                                    !- Apply Sunday
  Yes,                                    !- Apply Monday
  Yes,                                    !- Apply Tuesday
  Yes,                                    !- Apply Wednesday
  Yes,                                    !- Apply Thursday
  Yes,                                    !- Apply Friday
  Yes,                                    !- Apply Saturday
  DateRange,                              !- Date Specification Type
  1,                                      !- Start Month
  1,                                      !- Start Day
  12,                                     !- End Month
  31;                                     !- End Day

OS:Schedule:Day,
  {50430550-b338-40a6-9a8b-41c8259a363b}, !- Handle
  heating setpoint allday1,               !- Name
  {4a2bd0cf-4ef8-4726-a026-4f0a3821b7f5}, !- Schedule Type Limits Name
  ,                                       !- Interpolate to Timestep
  2,                                      !- Hour 1
  0,                                      !- Minute 1
  17.7777777777778,                       !- Value Until Time 1
  17,                                     !- Hour 2
  0,                                      !- Minute 2
  21.1111111111111,                       !- Value Until Time 2
  24,                                     !- Hour 3
  0,                                      !- Minute 3
  17.7777777777778;                       !- Value Until Time 3

OS:Schedule:Ruleset,
  {026b660a-d44f-4ca7-bb5b-4a238541d132}, !- Handle
  cooling setpoint,                       !- Name
  {4a2bd0cf-4ef8-4726-a026-4f0a3821b7f5}, !- Schedule Type Limits Name
  {0de821c9-3417-4c95-93c5-a670235fecd0}; !- Default Day Schedule Name

OS:Schedule:Day,
  {0de821c9-3417-4c95-93c5-a670235fecd0}, !- Handle
  cooling setpoint default day,           !- Name
  {4a2bd0cf-4ef8-4726-a026-4f0a3821b7f5}, !- Schedule Type Limits Name
  ,                                       !- Interpolate to Timestep
  24,                                     !- Hour 1
  0,                                      !- Minute 1
  0;                                      !- Value Until Time 1

OS:Schedule:Rule,
  {d69ad8eb-fe5c-4747-990c-1bb589847a32}, !- Handle
  cooling setpoint allday ruleset1,       !- Name
  {026b660a-d44f-4ca7-bb5b-4a238541d132}, !- Schedule Ruleset Name
  0,                                      !- Rule Order
  {d07e81f6-226d-4fc3-b9a2-8ccb5d8aca52}, !- Day Schedule Name
  Yes,                                    !- Apply Sunday
  Yes,                                    !- Apply Monday
  Yes,                                    !- Apply Tuesday
  Yes,                                    !- Apply Wednesday
  Yes,                                    !- Apply Thursday
  Yes,                                    !- Apply Friday
  Yes,                                    !- Apply Saturday
  DateRange,                              !- Date Specification Type
  1,                                      !- Start Month
  1,                                      !- Start Day
  12,                                     !- End Month
  31;                                     !- End Day

OS:Schedule:Day,
  {d07e81f6-226d-4fc3-b9a2-8ccb5d8aca52}, !- Handle
  cooling setpoint allday1,               !- Name
  {4a2bd0cf-4ef8-4726-a026-4f0a3821b7f5}, !- Schedule Type Limits Name
  ,                                       !- Interpolate to Timestep
  24,                                     !- Hour 1
  0,                                      !- Minute 1
  23.8888888888889;                       !- Value Until Time 1

OS:ThermostatSetpoint:DualSetpoint,
  {0a396f26-9e7d-43d0-9e5f-3c50e966c192}, !- Handle
  living space temperature setpoint,      !- Name
  {f243b6bb-ad78-41cc-baa5-d0361e7fbc2f}, !- Heating Setpoint Temperature Schedule Name
  {026b660a-d44f-4ca7-bb5b-4a238541d132}; !- Cooling Setpoint Temperature Schedule Name

OS:ScheduleTypeLimits,
  {4a2bd0cf-4ef8-4726-a026-4f0a3821b7f5}, !- Handle
  Temperature,                            !- Name
  ,                                       !- Lower Limit Value
  ,                                       !- Upper Limit Value
  Continuous,                             !- Numeric Type
  Temperature;                            !- Unit Type

OS:Surface,
  {40595c07-accf-46fa-9a7d-9b3033dfd8b8}, !- Handle
  Roof1,                                  !- Name
  RoofCeiling,                            !- Surface Type
  {d1383765-1bb5-49a8-9c09-1cc4c57ef0ed}, !- Construction Name
  {26f0ce13-3295-4ab8-9a3b-3e13d37d2c81}, !- Space Name
  Outdoors,                               !- Outside Boundary Condition
  ,                                       !- Outside Boundary Condition Object
  SunExposed,                             !- Sun Exposure
  WindExposed,                            !- Wind Exposure
  ,                                       !- View Factor to Ground
  ,                                       !- Number of Vertices
  -9.29707253655684, -19.0777823299733, 2.4384, !- X,Y,Z Vertex 1 {m}
  -9.29707253655684, -10.3296506305532, 6.81246584971008, !- X,Y,Z Vertex 2 {m}
  -19.077781114569, -10.3296506305532, 6.81246584971008, !- X,Y,Z Vertex 3 {m}
  -19.077781114569, -19.0777823299733, 2.4384; !- X,Y,Z Vertex 4 {m}

OS:AdditionalProperties,
  {7e48b9d8-a54b-4b3a-9175-527238fbbcfe}, !- Handle
  {40595c07-accf-46fa-9a7d-9b3033dfd8b8}, !- Object Name
  Length,                                 !- Feature Name 1
  Double,                                 !- Feature Data Type 1
  32.088938904239264,                     !- Feature Value 1
  Width,                                  !- Feature Name 2
  Double,                                 !- Feature Data Type 2
  32.088938904239264,                     !- Feature Value 2
  Azimuth,                                !- Feature Name 3
  Integer,                                !- Feature Data Type 3
  180,                                    !- Feature Value 3
  Tilt,                                   !- Feature Name 4
  Double,                                 !- Feature Data Type 4
  0.5,                                    !- Feature Value 4
  SurfaceType,                            !- Feature Name 5
  String,                                 !- Feature Data Type 5
  Roof;                                   !- Feature Value 5

OS:ThermalZone,
  {1cf5a8e2-6f8a-48fe-bd4e-e45de6257435}, !- Handle
  attic - vented,                         !- Name
  ,                                       !- Multiplier
  ,                                       !- Ceiling Height {m}
  186.800270889877,                       !- Volume {m3}
  ,                                       !- Floor Area {m2}
  ,                                       !- Zone Inside Convection Algorithm
  ,                                       !- Zone Outside Convection Algorithm
  ,                                       !- Zone Conditioning Equipment List Name
  {1550ecb0-07a0-441b-8b29-8276a0bd55ed}, !- Zone Air Inlet Port List
  {04d08585-f512-4d45-b044-a961529838b1}, !- Zone Air Exhaust Port List
  {47d8fa92-1f74-47ab-aec9-37ef21265b4e}, !- Zone Air Node Name
  {977fcecc-8cba-4ed2-b961-14b4090aee47}, !- Zone Return Air Port List
  ,                                       !- Primary Daylighting Control Name
  ,                                       !- Fraction of Zone Controlled by Primary Daylighting Control
  ,                                       !- Secondary Daylighting Control Name
  ,                                       !- Fraction of Zone Controlled by Secondary Daylighting Control
  ,                                       !- Illuminance Map Name
  ,                                       !- Group Rendering Name
  ,                                       !- Thermostat Name
  No;                                     !- Use Ideal Air Loads

OS:Node,
  {bde6529e-d4b2-4480-8f67-73d7437d52ba}, !- Handle
  Node 2,                                 !- Name
  {47d8fa92-1f74-47ab-aec9-37ef21265b4e}, !- Inlet Port
  ;                                       !- Outlet Port

OS:Connection,
  {47d8fa92-1f74-47ab-aec9-37ef21265b4e}, !- Handle
  {1cf5a8e2-6f8a-48fe-bd4e-e45de6257435}, !- Source Object
  11,                                     !- Outlet Port
  {bde6529e-d4b2-4480-8f67-73d7437d52ba}, !- Target Object
  2;                                      !- Inlet Port

OS:PortList,
  {1550ecb0-07a0-441b-8b29-8276a0bd55ed}, !- Handle
  {1cf5a8e2-6f8a-48fe-bd4e-e45de6257435}; !- HVAC Component

OS:PortList,
  {04d08585-f512-4d45-b044-a961529838b1}, !- Handle
  {1cf5a8e2-6f8a-48fe-bd4e-e45de6257435}; !- HVAC Component

OS:PortList,
  {977fcecc-8cba-4ed2-b961-14b4090aee47}, !- Handle
  {1cf5a8e2-6f8a-48fe-bd4e-e45de6257435}; !- HVAC Component

OS:Sizing:Zone,
  {74c4843d-759f-491f-a6c2-ba79a759822f}, !- Handle
  {1cf5a8e2-6f8a-48fe-bd4e-e45de6257435}, !- Zone or ZoneList Name
  SupplyAirTemperature,                   !- Zone Cooling Design Supply Air Temperature Input Method
  14,                                     !- Zone Cooling Design Supply Air Temperature {C}
  11.11,                                  !- Zone Cooling Design Supply Air Temperature Difference {deltaC}
  SupplyAirTemperature,                   !- Zone Heating Design Supply Air Temperature Input Method
  40,                                     !- Zone Heating Design Supply Air Temperature {C}
  11.11,                                  !- Zone Heating Design Supply Air Temperature Difference {deltaC}
  0.0085,                                 !- Zone Cooling Design Supply Air Humidity Ratio {kg-H2O/kg-air}
  0.008,                                  !- Zone Heating Design Supply Air Humidity Ratio {kg-H2O/kg-air}
  ,                                       !- Zone Heating Sizing Factor
  ,                                       !- Zone Cooling Sizing Factor
  DesignDay,                              !- Cooling Design Air Flow Method
  ,                                       !- Cooling Design Air Flow Rate {m3/s}
  ,                                       !- Cooling Minimum Air Flow per Zone Floor Area {m3/s-m2}
  ,                                       !- Cooling Minimum Air Flow {m3/s}
  ,                                       !- Cooling Minimum Air Flow Fraction
  DesignDay,                              !- Heating Design Air Flow Method
  ,                                       !- Heating Design Air Flow Rate {m3/s}
  ,                                       !- Heating Maximum Air Flow per Zone Floor Area {m3/s-m2}
  ,                                       !- Heating Maximum Air Flow {m3/s}
  ,                                       !- Heating Maximum Air Flow Fraction
  No,                                     !- Account for Dedicated Outdoor Air System
  NeutralSupplyAir,                       !- Dedicated Outdoor Air System Control Strategy
  autosize,                               !- Dedicated Outdoor Air Low Setpoint Temperature for Design {C}
  autosize,                               !- Dedicated Outdoor Air High Setpoint Temperature for Design {C}
  Sensible Load Only No Latent Load,      !- Zone Load Sizing Method
  HumidityRatioDifference,                !- Zone Latent Cooling Design Supply Air Humidity Ratio Input Method
  ,                                       !- Zone Dehumidification Design Supply Air Humidity Ratio {kgWater/kgDryAir}
  0.005,                                  !- Zone Cooling Design Supply Air Humidity Ratio Difference {kgWater/kgDryAir}
  HumidityRatioDifference,                !- Zone Latent Heating Design Supply Air Humidity Ratio Input Method
  ,                                       !- Zone Humidification Design Supply Air Humidity Ratio {kgWater/kgDryAir}
  0.005;                                  !- Zone Humidification Design Supply Air Humidity Ratio Difference {kgWater/kgDryAir}

OS:ZoneHVAC:EquipmentList,
  {4954b5f1-6282-4107-a691-13d4c5a61462}, !- Handle
  Zone HVAC Equipment List 2,             !- Name
  {1cf5a8e2-6f8a-48fe-bd4e-e45de6257435}; !- Thermal Zone

OS:Space,
  {26f0ce13-3295-4ab8-9a3b-3e13d37d2c81}, !- Handle
  attic - vented 1,                       !- Name
  ,                                       !- Space Type Name
  ,                                       !- Default Construction Set Name
  ,                                       !- Default Schedule Set Name
  ,                                       !- Direction of Relative North {deg}
  ,                                       !- X Origin {m}
  ,                                       !- Y Origin {m}
  ,                                       !- Z Origin {m}
  ,                                       !- Building Story Name
  {1cf5a8e2-6f8a-48fe-bd4e-e45de6257435}; !- Thermal Zone Name

OS:Material,
  {6d1d1256-706b-4d2e-9344-8a3107dba5c9}, !- Handle
  asphalt or fiberglass shingles,         !- Name
  Rough,                                  !- Roughness
  0.00635,                                !- Thickness {m}
  0.162714,                               !- Conductivity {W/m-K}
  1121.4,                                 !- Density {kg/m3}
  1465.45,                                !- Specific Heat {J/kg-K}
  0.9,                                    !- Thermal Absorptance
  0.85,                                   !- Solar Absorptance
  0.85;                                   !- Visible Absorptance

OS:Material,
  {e5d65e8b-bbb5-406e-b032-b454b51bbcd6}, !- Handle
  roof rigid ins,                         !- Name
  Rough,                                  !- Roughness
  0.0028163194147757,                     !- Thickness {m}
  0.029427,                               !- Conductivity {W/m-K}
  32.04,                                  !- Density {kg/m3}
  1214.23,                                !- Specific Heat {J/kg-K}
  0.9,                                    !- Thermal Absorptance
  0.7,                                    !- Solar Absorptance
  0.7;                                    !- Visible Absorptance

OS:Material,
  {6d36b325-d5fb-4f78-a47e-53eed2e3798c}, !- Handle
  osb sheathing 0.5 in.,                  !- Name
  Rough,                                  !- Roughness
  0.0127,                                 !- Thickness {m}
  0.1154577,                              !- Conductivity {W/m-K}
  512.64,                                 !- Density {kg/m3}
  1214.23,                                !- Specific Heat {J/kg-K}
  0.9,                                    !- Thermal Absorptance
  0.6,                                    !- Solar Absorptance
  0.6;                                    !- Visible Absorptance

OS:Construction,
  {d1383765-1bb5-49a8-9c09-1cc4c57ef0ed}, !- Handle
  Roof1 construction,                     !- Name