
OS:Version,
  {6d499a51-f5bc-43fc-a5a7-485890624048}, !- Handle
  3.6.1;                                  !- Version Identifier

OS:WeatherFile,
  {ed8108c6-6ec0-4893-8c30-ba7bf067a4b8}, !- Handle
  Danville Faa Ap,                        !- City
  VA,                                     !- State Province Region
  USA,                                    !- Country
  TMY3,                                   !- Data Source
  724106,                                 !- WMO Number
  36.57,                                  !- Latitude {deg}
  -79.33,                                 !- Longitude {deg}
  -5,                                     !- Time Zone {hr}
  176,                                    !- Elevation {m}
  C:/Users/ylou2/Desktop/resstock-3.1.0/national_baseline/run4/run/../../../weather/G3700010.epw, !- Url
  3EE73BAD,                               !- Checksum
  ,                                       !- Start Date Actual Year
  Sunday;                                 !- Start Day of Week

OS:YearDescription,
  {93892f98-48a5-447c-a528-73cf76039638}, !- Handle
  2007,                                   !- Calendar Year
  ,                                       !- Day of Week for Start Day
  ;                                       !- Is Leap Year

OS:Site,
  {9706759e-05ac-4f28-bb5e-2b5caf31c9fe}, !- Handle
  Danville Faa Ap_VA_USA,                 !- Name
  36.57,                                  !- Latitude {deg}
  -79.33,                                 !- Longitude {deg}
  -5,                                     !- Time Zone {hr}
  176,                                    !- Elevation {m}
  Suburbs;                                !- Terrain

OS:RunPeriodControl:DaylightSavingTime,
  {7aba4cb0-e7df-4f35-b294-74a1515b8740}, !- Handle
  Mar 12,                                 !- Start Date
  Nov 5;                                  !- End Date

OS:Site:GroundTemperature:Shallow,
  {765141e5-6bff-4ecf-90b6-3ff228c9391c}, !- Handle
  10.9212723494153,                       !- January Surface Ground Temperature {C}
  9.12279392871758,                       !- February Surface Ground Temperature {C}
  8.97876532706078,                       !- March Surface Ground Temperature {C}
  9.83223523345553,                       !- April Surface Ground Temperature {C}
  13.258441316812,                        !- May Surface Ground Temperature {C}
  16.6686866787591,                       !- June Surface Ground Temperature {C}
  19.6251871495654,                       !- July Surface Ground Temperature {C}
  21.498057484174,                        !- August Surface Ground Temperature {C}
  21.6571681060446,                       !- September Surface Ground Temperature {C}
  20.1339028753812,                       !- October Surface Ground Temperature {C}
  17.2527949023855,                       !- November Surface Ground Temperature {C}
  13.9471619779695;                       !- December Surface Ground Temperature {C}

OS:Site:GroundTemperature:Deep,
  {e8feacea-5bfd-4b63-9dc2-3f2553049de3}, !- Handle
  15.1518493150685,                       !- January Deep Ground Temperature {C}
  15.1518493150685,                       !- February Deep Ground Temperature {C}
  15.1518493150685,                       !- March Deep Ground Temperature {C}
  15.1518493150685,                       !- April Deep Ground Temperature {C}
  15.1518493150685,                       !- May Deep Ground Temperature {C}
  15.1518493150685,                       !- June Deep Ground Temperature {C}
  15.1518493150685,                       !- July Deep Ground Temperature {C}
  15.1518493150685,                       !- August Deep Ground Temperature {C}
  15.1518493150685,                       !- September Deep Ground Temperature {C}
  15.1518493150685,                       !- October Deep Ground Temperature {C}
  15.1518493150685,                       !- November Deep Ground Temperature {C}
  15.1518493150685;                       !- December Deep Ground Temperature {C}

OS:SimulationControl,
  {a33f6d83-9a2b-44c5-8159-bdb41308c2a6}, !- Handle
  ,                                       !- Do Zone Sizing Calculation
  ,                                       !- Do System Sizing Calculation
  ,                                       !- Do Plant Sizing Calculation
  No;                                     !- Run Simulation for Sizing Periods

OS:Timestep,
  {676281f6-742f-428d-a1a1-bb0e49562a24}, !- Handle
  1;                                      !- Number of Timesteps per Hour

OS:ShadowCalculation,
  {9cfa757e-6a43-47df-88b4-b0817ca0dca0}, !- Handle
  PolygonClipping,                        !- Shading Calculation Method
  ,                                       !- Shading Calculation Update Frequency Method
  20,                                     !- Shading Calculation Update Frequency
  200,                                    !- Maximum Figures in Shadow Overlap Calculations
  ,                                       !- Polygon Clipping Algorithm
  512,                                    !- Pixel Counting Resolution
  DetailedSkyDiffuseModeling,             !- Sky Diffuse Modeling Algorithm
  No,                                     !- Output External Shading Calculation Results
  No,                                     !- Disable Self-Shading Within Shading Zone Groups
  No;                                     !- Disable Self-Shading From Shading Zone Groups to Other Zones

OS:SurfaceConvectionAlgorithm:Outside,
  {7ba41f33-85e0-4f21-b04b-01334f25692a}, !- Handle
  DOE-2;                                  !- Algorithm

OS:SurfaceConvectionAlgorithm:Inside,
  {6b050c5b-434a-4e5f-aab4-0bfe616a0d7e}, !- Handle
  TARP;                                   !- Algorithm

OS:ZoneCapacitanceMultiplier:ResearchSpecial,
  {e3749bac-54cd-4712-b71a-79349200e477}, !- Handle
  1,                                      !- Temperature Capacity Multiplier
  15,                                     !- Humidity Capacity Multiplier
  ;                                       !- Carbon Dioxide Capacity Multiplier

OS:ConvergenceLimits,
  {5a87eca6-efd9-4bb4-a3f2-e1e86a33829d}, !- Handle
  0;                                      !- Minimum System Timestep {minutes}

OS:RunPeriod,
  {893853b9-3435-48af-81e6-155119266d50}, !- Handle
  Run Period 1,                           !- Name
  1,                                      !- Begin Month
  1,                                      !- Begin Day of Month
  12,                                     !- End Month
  31,                                     !- End Day of Month
  ,                                       !- Use Weather File Holidays and Special Days
  ,                                       !- Use Weather File Daylight Saving Period
  ,                                       !- Apply Weekend Holiday Rule
  ,                                       !- Use Weather File Rain Indicators
  ,                                       !- Use Weather File Snow Indicators
  ;                                       !- Number of Times Runperiod to be Repeated

OS:PerformancePrecisionTradeoffs,
  {9b33931c-385b-4784-84b0-6212ddb1da25}, !- Handle
  ,                                       !- Use Coil Direct Solutions
  CarrollMRT;                             !- Zone Radiant Exchange Algorithm

OS:ThermalZone,
  {ec9c7e3d-d8e3-4336-853d-102a5f0eb6eb}, !- Handle
  living space,                           !- Name
  ,                                       !- Multiplier
  ,                                       !- Ceiling Height {m}
  749.83009775616,                        !- Volume {m3}
  ,                                       !- Floor Area {m2}
  ,                                       !- Zone Inside Convection Algorithm
  ,                                       !- Zone Outside Convection Algorithm
  ,                                       !- Zone Conditioning Equipment List Name
  {32f90deb-af07-4b8c-b081-67ab180c4545}, !- Zone Air Inlet Port List
  {832f0577-13c3-4d60-9a72-e6fce42b266a}, !- Zone Air Exhaust Port List
  {91642a5a-f230-49bf-8229-2a4c92423ac3}, !- Zone Air Node Name
  {46274bb1-2d98-4eda-8816-0f555020b1a2}, !- Zone Return Air Port List
  ,                                       !- Primary Daylighting Control Name
  ,                                       !- Fraction of Zone Controlled by Primary Daylighting Control
  ,                                       !- Secondary Daylighting Control Name
  ,                                       !- Fraction of Zone Controlled by Secondary Daylighting Control
  ,                                       !- Illuminance Map Name
  ,                                       !- Group Rendering Name
  {b2e88256-1688-41cd-95ea-1338d516c59a}, !- Thermostat Name
  No;                                     !- Use Ideal Air Loads

OS:Node,
  {3a84b47f-00a0-41e4-8193-bd8b80f47f2c}, !- Handle
  Node 1,                                 !- Name
  {91642a5a-f230-49bf-8229-2a4c92423ac3}, !- Inlet Port
  ;                                       !- Outlet Port

OS:Connection,
  {91642a5a-f230-49bf-8229-2a4c92423ac3}, !- Handle
  {ec9c7e3d-d8e3-4336-853d-102a5f0eb6eb}, !- Source Object
  11,                                     !- Outlet Port
  {3a84b47f-00a0-41e4-8193-bd8b80f47f2c}, !- Target Object
  2;                                      !- Inlet Port

OS:PortList,
  {32f90deb-af07-4b8c-b081-67ab180c4545}, !- Handle
  {ec9c7e3d-d8e3-4336-853d-102a5f0eb6eb}, !- HVAC Component
  {b48cc67a-671c-4bd3-bacf-10761962f6ba}, !- Port 1
  {b1e65172-e8b7-430d-b912-f55726a4b1c2}; !- Port 2

OS:PortList,
  {832f0577-13c3-4d60-9a72-e6fce42b266a}, !- Handle
  {ec9c7e3d-d8e3-4336-853d-102a5f0eb6eb}, !- HVAC Component
  {91c2350d-6573-4c1d-8633-fdcf98fa1b13}; !- Port 1

OS:PortList,
  {46274bb1-2d98-4eda-8816-0f555020b1a2}, !- Handle
  {ec9c7e3d-d8e3-4336-853d-102a5f0eb6eb}, !- HVAC Component
  {9d0d9d9d-6f52-4bac-87fa-11f538004863}; !- Port 1

OS:Sizing:Zone,
  {cada51ca-b103-459a-8eda-e23875e0fa28}, !- Handle
  {ec9c7e3d-d8e3-4336-853d-102a5f0eb6eb}, !- Zone or ZoneList Name
  SupplyAirTemperature,                   !- Zone Cooling Design Supply Air Temperature Input Method
  14,                                     !- Zone Cooling Design Supply Air Temperature {C}
  11.11,                                  !- Zone Cooling Design Supply Air Temperature Difference {deltaC}
  SupplyAirTemperature,                   !- Zone Heating Design Supply Air Temperature Input Method
  40,                                     !- Zone Heating Design Supply Air Temperature {C}
  11.11,                                  !- Zone Heating Design Supply Air Temperature Difference {deltaC}
  0.0085,                                 !- Zone Cooling Design Supply Air Humidity Ratio {kg-H2O/kg-air}
  0.008,                                  !- Zone Heating Design Supply Air Humidity Ratio {kg-H2O/kg-air}
  ,                                       !- Zone Heating Sizing Factor
  ,                                       !- Zone Cooling Sizing Factor
  DesignDay,                              !- Cooling Design Air Flow Method
  ,                                       !- Cooling Design Air Flow Rate {m3/s}
  ,                                       !- Cooling Minimum Air Flow per Zone Floor Area {m3/s-m2}
  ,                                       !- Cooling Minimum Air Flow {m3/s}
  ,                                       !- Cooling Minimum Air Flow Fraction
  DesignDay,                              !- Heating Design Air Flow Method
  ,                                       !- Heating Design Air Flow Rate {m3/s}
  ,                                       !- Heating Maximum Air Flow per Zone Floor Area {m3/s-m2}
  ,                                       !- Heating Maximum Air Flow {m3/s}
  ,                                       !- Heating Maximum Air Flow Fraction
  No,                                     !- Account for Dedicated Outdoor Air System
  NeutralSupplyAir,                       !- Dedicated Outdoor Air System Control Strategy
  autosize,                               !- Dedicated Outdoor Air Low Setpoint Temperature for Design {C}
  autosize,                               !- Dedicated Outdoor Air High Setpoint Temperature for Design {C}
  Sensible Load Only No Latent Load,      !- Zone Load Sizing Method
  HumidityRatioDifference,                !- Zone Latent Cooling Design Supply Air Humidity Ratio Input Method
  ,                                       !- Zone Dehumidification Design Supply Air Humidity Ratio {kgWater/kgDryAir}
  0.005,                                  !- Zone Cooling Design Supply Air Humidity Ratio Difference {kgWater/kgDryAir}
  HumidityRatioDifference,                !- Zone Latent Heating Design Supply Air Humidity Ratio Input Method
  ,                                       !- Zone Humidification Design Supply Air Humidity Ratio {kgWater/kgDryAir}
  0.005;                                  !- Zone Humidification Design Supply Air Humidity Ratio Difference {kgWater/kgDryAir}

OS:ZoneHVAC:EquipmentList,
  {db0ec095-e05f-4f89-a81e-62299017173e}, !- Handle
  Zone HVAC Equipment List 1,             !- Name
  {ec9c7e3d-d8e3-4336-853d-102a5f0eb6eb}, !- Thermal Zone
  ,                                       !- Load Distribution Scheme
  {d1b391fa-0586-4bbf-8cc7-bc6aaa5c46e5}, !- Zone Equipment 1
  1,                                      !- Zone Equipment Cooling Sequence 1
  1,                                      !- Zone Equipment Heating or No-Load Sequence 1
  {6bd22e28-b8cc-4e9c-8d06-233e98818243}, !- Zone Equipment Sequential Cooling Fraction Schedule Name 1
  {59f470cf-ce9d-45f7-9aeb-d5082c7cb130}, !- Zone Equipment Sequential Heating Fraction Schedule Name 1
  {11a1407a-4380-4ea4-8c1f-111063e405a4}, !- Zone Equipment 2
  2,                                      !- Zone Equipment Cooling Sequence 2
  2,                                      !- Zone Equipment Heating or No-Load Sequence 2
  {9ada1bf1-0ef8-4fa6-a932-fbe0b958fddf}, !- Zone Equipment Sequential Cooling Fraction Schedule Name 2
  {f84f9359-1b6c-4c1f-a832-2fb3ba744fd7}; !- Zone Equipment Sequential Heating Fraction Schedule Name 2

OS:Space,
  {73ec5d3c-ce3a-4fc5-815b-eb10ed222fa1}, !- Handle
  living space 1,                         !- Name
  ,                                       !- Space Type Name
  ,                                       !- Default Construction Set Name
  ,                                       !- Default Schedule Set Name
  ,                                       !- Direction of Relative North {deg}
  ,                                       !- X Origin {m}
  ,                                       !- Y Origin {m}
  ,                                       !- Z Origin {m}
  ,                                       !- Building Story Name
  {ec9c7e3d-d8e3-4336-853d-102a5f0eb6eb}; !- Thermal Zone Name

OS:Schedule:Ruleset,
  {4a0a9df5-6a33-4250-9bde-ee564343306a}, !- Handle
  heating setpoint,                       !- Name
  {66dda078-fc2b-4618-bc41-950655f8e14d}, !- Schedule Type Limits Name
  {9c0dab4f-1131-42a4-a223-8bad863cbe72}; !- Default Day Schedule Name

OS:Schedule:Day,
  {9c0dab4f-1131-42a4-a223-8bad863cbe72}, !- Handle
  heating setpoint default day,           !- Name
  {66dda078-fc2b-4618-bc41-950655f8e14d}, !- Schedule Type Limits Name
  ,                                       !- Interpolate to Timestep
  24,                                     !- Hour 1
  0,                                      !- Minute 1
  0;                                      !- Value Until Time 1

OS:Schedule:Rule,
  {3525cd10-defd-4672-b6f4-ed55f92feb28}, !- Handle
  heating setpoint allday ruleset1,       !- Name
  {4a0a9df5-6a33-4250-9bde-ee564343306a}, !- Schedule Ruleset Name
  0,                                      !- Rule Order
  {88f6c72c-8c44-4366-8d7e-2c89f0bd3c6c}, !- Day Schedule Name
  Yes,                                    !- Apply Sunday
  Yes,                                    !- Apply Monday
  Yes,                                    !- Apply Tuesday
  Yes,                                    !- Apply Wednesday
  Yes,                                    !- Apply Thursday
  Yes,                                    !- Apply Friday
  Yes,                                    !- Apply Saturday
  DateRange,                              !- Date Specification Type
  1,                                      !- Start Month
  1,                                      !- Start Day
  12,                                     !- End Month
  31;                                     !- End Day

OS:Schedule:Day,
  {88f6c72c-8c44-4366-8d7e-2c89f0bd3c6c}, !- Handle
  heating setpoint allday1,               !- Name
  {66dda078-fc2b-4618-bc41-950655f8e14d}, !- Schedule Type Limits Name
  ,                                       !- Interpolate to Timestep
  3,                                      !- Hour 1
  0,                                      !- Minute 1
  19.4444444444444,                       !- Value Until Time 1
  12,                                     !- Hour 2
  0,                                      !- Minute 2
  17.7777777777778,                       !- Value Until Time 2
  24,                                     !- Hour 3
  0,                                      !- Minute 3
  19.4444444444444;                       !- Value Until Time 3

OS:Schedule:Ruleset,
  {4f147542-a5bf-4e3c-9fb4-6c3be0436304}, !- Handle
  cooling setpoint,                       !- Name
  {66dda078-fc2b-4618-bc41-950655f8e14d}, !- Schedule Type Limits Name
  {83c682df-5f8d-4d02-adb5-5047ac2556c2}; !- Default Day Schedule Name

OS:Schedule:Day,
  {83c682df-5f8d-4d02-adb5-5047ac2556c2}, !- Handle
  cooling setpoint default day,           !- Name
  {66dda078-fc2b-4618-bc41-950655f8e14d}, !- Schedule Type Limits Name
  ,                                       !- Interpolate to Timestep
  24,                                     !- Hour 1
  0,                                      !- Minute 1
  0;                                      !- Value Until Time 1

OS:Schedule:Rule,
  {561038fa-414d-4066-8847-55a0f11b41d4}, !- Handle
  cooling setpoint allday ruleset1,       !- Name
  {4f147542-a5bf-4e3c-9fb4-6c3be0436304}, !- Schedule Ruleset Name
  0,                                      !- Rule Order
  {aed8cf01-b1a9-4b5f-b372-4bd06db009e8}, !- Day Schedule Name
  Yes,                                    !- Apply Sunday
  Yes,                                    !- Apply Monday
  Yes,                                    !- Apply Tuesday
  Yes,                                    !- Apply Wednesday
  Yes,                                    !- Apply Thursday
  Yes,                                    !- Apply Friday
  Yes,                                    !- Apply Saturday
  DateRange,                              !- Date Specification Type
  1,                                      !- Start Month
  1,                                      !- Start Day
  12,                                     !- End Month
  31;                                     !- End Day

OS:Schedule:Day,
  {aed8cf01-b1a9-4b5f-b372-4bd06db009e8}, !- Handle
  cooling setpoint allday1,               !- Name
  {66dda078-fc2b-4618-bc41-950655f8e14d}, !- Schedule Type Limits Name
  ,                                       !- Interpolate to Timestep
  24,                                     !- Hour 1
  0,                                      !- Minute 1
  22.2222222222222;                       !- Value Until Time 1

OS:ThermostatSetpoint:DualSetpoint,
  {b2e88256-1688-41cd-95ea-1338d516c59a}, !- Handle
  living space temperature setpoint,      !- Name
  {4a0a9df5-6a33-4250-9bde-ee564343306a}, !- Heating Setpoint Temperature Schedule Name
  {4f147542-a5bf-4e3c-9fb4-6c3be0436304}; !- Cooling Setpoint Temperature Schedule Name

OS:ScheduleTypeLimits,
  {66dda078-fc2b-4618-bc41-950655f8e14d}, !- Handle
  Temperature,                            !- Name
  ,                                       !- Lower Limit Value
  ,                                       !- Upper Limit Value
  Continuous,                             !- Numeric Type
  Temperature;                            !- Unit Type

OS:Surface,
  {da5e40a8-e21d-4db4-8fcf-242ae9d30af5}, !- Handle
  Roof1,                                  !- Name
  RoofCeiling,                            !- Surface Type
  {3fc577c0-745d-4139-922f-758bc7de5ebc}, !- Construction Name
  {3c230b86-3039-425d-95e6-83bcf484a54b}, !- Space Name
  Outdoors,                               !- Outside Boundary Condition
  ,                                       !- Outside Boundary Condition Object
  SunExposed,                             !- Sun Exposure
  WindExposed,                            !- Wind Exposure
  ,                                       !- View Factor to Ground
  ,                                       !- Number of Vertices
  35.3304816534489, -64.4438243485465, 2.7432, !- X,Y,Z Vertex 1 {m}
  35.3304816534489, -52.217430461484, 8.85639694353126, !- X,Y,Z Vertex 2 {m}
  21.660957727869, -52.217430461484, 8.85639694353126, !- X,Y,Z Vertex 3 {m}
  21.660957727869, -64.4438243485465, 2.7432; !- X,Y,Z Vertex 4 {m}

OS:AdditionalProperties,
  {b6540aa8-f4ce-48f6-ade4-48ef992326fd}, !- Handle
  {da5e40a8-e21d-4db4-8fcf-242ae9d30af5}, !- Object Name
  Length,                                 !- Feature Name 1
  Double,                                 !- Feature Data Type 1
  44.847519440878777,                     !- Feature Value 1
  Width,                                  !- Feature Name 2
  Double,                                 !- Feature Data Type 2
  44.847519440878777,                     !- Feature Value 2
  Azimuth,                                !- Feature Name 3
  Integer,                                !- Feature Data Type 3
  180,                                    !- Feature Value 3
  Tilt,                                   !- Feature Name 4
  Double,                                 !- Feature Data Type 4
  0.5,                                    !- Feature Value 4
  SurfaceType,                            !- Feature Name 5
  String,                                 !- Feature Data Type 5
  Roof;                                   !- Feature Value 5

OS:ThermalZone,
  {43440bf1-8288-4d36-9046-d45bb0153924}, !- Handle
  attic - vented,                         !- Name
  ,                                       !- Multiplier
  ,                                       !- Ceiling Height {m}
  511.284738876887,                       !- Volume {m3}
  ,                                       !- Floor Area {m2}
  ,                                       !- Zone Inside Convection Algorithm
  ,                                       !- Zone Outside Convection Algorithm
  ,                                       !- Zone Conditioning Equipment List Name
  {c491a384-fa14-4a0f-8c7c-638da55a0e52}, !- Zone Air Inlet Port List
  {81a1ba1d-4983-44bc-a984-d59fa53fc192}, !- Zone Air Exhaust Port List
  {e4f49156-a925-4abb-9770-c6c3be50d8e4}, !- Zone Air Node Name
  {4297e49a-46c2-4676-bcd7-7a2bc54f7b23}, !- Zone Return Air Port List
  ,                                       !- Primary Daylighting Control Name
  ,                                       !- Fraction of Zone Controlled by Primary Daylighting Control
  ,                                       !- Secondary Daylighting Control Name
  ,                                       !- Fraction of Zone Controlled by Secondary Daylighting Control
  ,                                       !- Illuminance Map Name
  ,                                       !- Group Rendering Name
  ,                                       !- Thermostat Name
  No;                                     !- Use Ideal Air Loads

OS:Node,
  {30bbf533-a4a2-43cf-911c-56e8bd5d6efb}, !- Handle
  Node 2,                                 !- Name
  {e4f49156-a925-4abb-9770-c6c3be50d8e4}, !- Inlet Port
  ;                                       !- Outlet Port

OS:Connection,
  {e4f49156-a925-4abb-9770-c6c3be50d8e4}, !- Handle
  {43440bf1-8288-4d36-9046-d45bb0153924}, !- Source Object
  11,                                     !- Outlet Port
  {30bbf533-a4a2-43cf-911c-56e8bd5d6efb}, !- Target Object
  2;                                      !- Inlet Port

OS:PortList,
  {c491a384-fa14-4a0f-8c7c-638da55a0e52}, !- Handle
  {43440bf1-8288-4d36-9046-d45bb0153924}; !- HVAC Component

OS:PortList,
  {81a1ba1d-4983-44bc-a984-d59fa53fc192}, !- Handle
  {43440bf1-8288-4d36-9046-d45bb0153924}; !- HVAC Component

OS:PortList,
  {4297e49a-46c2-4676-bcd7-7a2bc54f7b23}, !- Handle
  {43440bf1-8288-4d36-9046-d45bb0153924}; !- HVAC Component

OS:Sizing:Zone,
  {645168f3-fef6-4a03-87e5-b96567783bcc}, !- Handle
  {43440bf1-8288-4d36-9046-d45bb0153924}, !- Zone or ZoneList Name
  SupplyAirTemperature,                   !- Zone Cooling Design Supply Air Temperature Input Method
  14,                                     !- Zone Cooling Design Supply Air Temperature {C}
  11.11,                                  !- Zone Cooling Design Supply Air Temperature Difference {deltaC}
  SupplyAirTemperature,                   !- Zone Heating Design Supply Air Temperature Input Method
  40,                                     !- Zone Heating Design Supply Air Temperature {C}
  11.11,                                  !- Zone Heating Design Supply Air Temperature Difference {deltaC}
  0.0085,                                 !- Zone Cooling Design Supply Air Humidity Ratio {kg-H2O/kg-air}
  0.008,                                  !- Zone Heating Design Supply Air Humidity Ratio {kg-H2O/kg-air}
  ,                                       !- Zone Heating Sizing Factor
  ,                                       !- Zone Cooling Sizing Factor
  DesignDay,                              !- Cooling Design Air Flow Method
  ,                                       !- Cooling Design Air Flow Rate {m3/s}
  ,                                       !- Cooling Minimum Air Flow per Zone Floor Area {m3/s-m2}
  ,                                       !- Cooling Minimum Air Flow {m3/s}
  ,                                       !- Cooling Minimum Air Flow Fraction
  DesignDay,                              !- Heating Design Air Flow Method
  ,                                       !- Heating Design Air Flow Rate {m3/s}
  ,                                       !- Heating Maximum Air Flow per Zone Floor Area {m3/s-m2}
  ,                                       !- Heating Maximum Air Flow {m3/s}
  ,                                       !- Heating Maximum Air Flow Fraction
  No,                                     !- Account for Dedicated Outdoor Air System
  NeutralSupplyAir,                       !- Dedicated Outdoor Air System Control Strategy
  autosize,                               !- Dedicated Outdoor Air Low Setpoint Temperature for Design {C}
  autosize,                               !- Dedicated Outdoor Air High Setpoint Temperature for Design {C}
  Sensible Load Only No Latent Load,      !- Zone Load Sizing Method
  HumidityRatioDifference,                !- Zone Latent Cooling Design Supply Air Humidity Ratio Input Method
  ,                                       !- Zone Dehumidification Design Supply Air Humidity Ratio {kgWater/kgDryAir}
  0.005,                                  !- Zone Cooling Design Supply Air Humidity Ratio Difference {kgWater/kgDryAir}
  HumidityRatioDifference,                !- Zone Latent Heating Design Supply Air Humidity Ratio Input Method
  ,                                       !- Zone Humidification Design Supply Air Humidity Ratio {kgWater/kgDryAir}
  0.005;                                  !- Zone Humidification Design Supply Air Humidity Ratio Difference {kgWater/kgDryAir}

OS:ZoneHVAC:EquipmentList,
  {9667b226-9ad6-4047-867f-4520d7dc40e5}, !- Handle
  Zone HVAC Equipment List 2,             !- Name
  {43440bf1-8288-4d36-9046-d45bb0153924}; !- Thermal Zone

OS:Space,
  {3c230b86-3039-425d-95e6-83bcf484a54b}, !- Handle
  attic - vented 1,                       !- Name
  ,                                       !- Space Type Name
  ,                                       !- Default Construction Set Name
  ,                                       !- Default Schedule Set Name
  ,                                       !- Direction of Relative North {deg}
  ,                                       !- X Origin {m}
  ,                                       !- Y Origin {m}
  ,                                       !- Z Origin {m}
  ,                                       !- Building Story Name
  {43440bf1-8288-4d36-9046-d45bb0153924}; !- Thermal Zone Name

OS:Material,
  {e20faab6-ac44-416b-997e-51a5c52b64f1}, !- Handle
  metal surfacing,                        !- Name
  Rough,                                  !- Roughness
  0.000508,                               !- Thickness {m}
  50.040325,                              !- Conductivity {W/m-K}
  7801.74,                                !- Density {kg/m3}
  460.57,                                 !- Specific Heat {J/kg-K}
  0.9,                                    !- Thermal Absorptance
  0.9,                                    !- Solar Absorptance
  0.9;                                    !- Visible Absorptance

OS:Material,
  {74515e7e-27a6-4ea8-952b-eb4d3f974a37}, !- Handle
  roof rigid ins,                         !- Name
  Rough,                                  !- Roughness
  0.00396442493270656,                    !- Thickness {m}
  0.029427,                               !- Conductivity {W/m-K}
  32.04,                                  !- Density {kg/m3}
  1214.23,                                !- Specific Heat {J/kg-K}
  0.9,                                    !- Thermal Absorptance
  0.7,                                    !- Solar Absorptance
  0.7;                                    !- Visible Absorptance

OS:Material,
  {2a14a41b-6e42-4871-9d8a-629770d570c7}, !- Handle
  osb sheathing 0.5 in.,                  !- Name
  Rough,                                  !- Roughness