
Version,
  23.1;                                   !- Version Identifier

Timestep,
  1;                                      !- Number of Timesteps per Hour

LifeCycleCost:Parameters,
  Life Cycle Cost Parameters,             !- Name
  EndOfYear,                              !- Discounting Convention
  ConstantDollar,                         !- Inflation Approach
  0.03,                                   !- Real Discount Rate
  ,                                       !- Nominal Discount Rate
  ,                                       !- Inflation
  ,                                       !- Base Date Month
  2011,                                   !- Base Date Year
  ,                                       !- Service Date Month
  2011,                                   !- Service Date Year
  25,                                     !- Length of Study Period in Years
  ,                                       !- Tax rate
  None;                                   !- Depreciation Method

LifeCycleCost:UsePriceEscalation,
  U.S. Avg  Commercial-Electricity,       !- Name
  Electricity,                            !- Resource
  2011,                                   !- Escalation Start Year
  January,                                !- Escalation Start Month
  0.9838,                                 !- Year Escalation 1
  0.9730,                                 !- Year Escalation 2
  0.9632,                                 !- Year Escalation 3
  0.9611,                                 !- Year Escalation 4
  0.9571,                                 !- Year Escalation 5
  0.9553,                                 !- Year Escalation 6
  0.9539,                                 !- Year Escalation 7
  0.9521,                                 !- Year Escalation 8
  0.9546,                                 !- Year Escalation 9
  0.9550,                                 !- Year Escalation 10
  0.9553,                                 !- Year Escalation 11
  0.9564,                                 !- Year Escalation 12
  0.9575,                                 !- Year Escalation 13
  0.9596,                                 !- Year Escalation 14
  0.9618,                                 !- Year Escalation 15
  0.9614,                                 !- Year Escalation 16
  0.9618,                                 !- Year Escalation 17
  0.9618,                                 !- Year Escalation 18
  0.9593,                                 !- Year Escalation 19
  0.9589,                                 !- Year Escalation 20
  0.9607,                                 !- Year Escalation 21
  0.9625,                                 !- Year Escalation 22
  0.9650,                                 !- Year Escalation 23
  0.9708,                                 !- Year Escalation 24
  0.9751,                                 !- Year Escalation 25
  0.9762,                                 !- Year Escalation 26
  0.9766,                                 !- Year Escalation 27
  0.9766,                                 !- Year Escalation 28
  0.9769,                                 !- Year Escalation 29
  0.9773;                                 !- Year Escalation 30

LifeCycleCost:UsePriceEscalation,
  U.S. Avg  Commercial-Distillate Oil,    !- Name
  FuelOilNo1,                             !- Resource
  2011,                                   !- Escalation Start Year
  January,                                !- Escalation Start Month
  0.9714,                                 !- Year Escalation 1
  0.9730,                                 !- Year Escalation 2
  0.9942,                                 !- Year Escalation 3
  1.0164,                                 !- Year Escalation 4
  1.0541,                                 !- Year Escalation 5
  1.0928,                                 !- Year Escalation 6
  1.1267,                                 !- Year Escalation 7
  1.1580,                                 !- Year Escalation 8
  1.1792,                                 !- Year Escalation 9
  1.1967,                                 !- Year Escalation 10
  1.2200,                                 !- Year Escalation 11
  1.2333,                                 !- Year Escalation 12
  1.2566,                                 !- Year Escalation 13
  1.2709,                                 !- Year Escalation 14
  1.2826,                                 !- Year Escalation 15
  1.2985,                                 !- Year Escalation 16
  1.3102,                                 !- Year Escalation 17
  1.3250,                                 !- Year Escalation 18
  1.3261,                                 !- Year Escalation 19
  1.3282,                                 !- Year Escalation 20
  1.3324,                                 !- Year Escalation 21
  1.3356,                                 !- Year Escalation 22
  1.3431,                                 !- Year Escalation 23
  1.3510,                                 !- Year Escalation 24
  1.3568,                                 !- Year Escalation 25
  1.3606,                                 !- Year Escalation 26
  1.3637,                                 !- Year Escalation 27
  1.3674,                                 !- Year Escalation 28
  1.3706,                                 !- Year Escalation 29
  1.3743;                                 !- Year Escalation 30

LifeCycleCost:UsePriceEscalation,
  U.S. Avg  Commercial-Residual Oil,      !- Name
  FuelOilNo2,                             !- Resource
  2011,                                   !- Escalation Start Year
  January,                                !- Escalation Start Month
  0.8469,                                 !- Year Escalation 1
  0.8257,                                 !- Year Escalation 2
  0.8681,                                 !- Year Escalation 3
  0.8988,                                 !- Year Escalation 4
  0.9289,                                 !- Year Escalation 5
  0.9604,                                 !- Year Escalation 6
  0.9897,                                 !- Year Escalation 7
  1.0075,                                 !- Year Escalation 8
  1.0314,                                 !- Year Escalation 9
  1.0554,                                 !- Year Escalation 10
  1.0861,                                 !- Year Escalation 11
  1.1278,                                 !- Year Escalation 12
  1.1497,                                 !- Year Escalation 13
  1.1620,                                 !- Year Escalation 14
  1.1743,                                 !- Year Escalation 15
  1.1852,                                 !- Year Escalation 16
  1.1948,                                 !- Year Escalation 17
  1.2037,                                 !- Year Escalation 18
  1.2071,                                 !- Year Escalation 19
  1.2119,                                 !- Year Escalation 20
  1.2139,                                 !- Year Escalation 21
  1.2194,                                 !- Year Escalation 22
  1.2276,                                 !- Year Escalation 23
  1.2365,                                 !- Year Escalation 24
  1.2420,                                 !- Year Escalation 25
  1.2461,                                 !- Year Escalation 26
  1.2509,                                 !- Year Escalation 27
  1.2550,                                 !- Year Escalation 28
  1.2591,                                 !- Year Escalation 29
  1.2638;                                 !- Year Escalation 30

LifeCycleCost:UsePriceEscalation,
  U.S. Avg  Commercial-Natural gas,       !- Name
  NaturalGas,                             !- Resource
  2011,                                   !- Escalation Start Year
  January,                                !- Escalation Start Month
  0.9823,                                 !- Year Escalation 1
  0.9557,                                 !- Year Escalation 2
  0.9279,                                 !- Year Escalation 3
  0.9257,                                 !- Year Escalation 4
  0.9346,                                 !- Year Escalation 5
  0.9412,                                 !- Year Escalation 6
  0.9512,                                 !- Year Escalation 7
  0.9645,                                 !- Year Escalation 8
  0.9856,                                 !- Year Escalation 9
  1.0067,                                 !- Year Escalation 10
  1.0222,                                 !- Year Escalation 11
  1.0410,                                 !- Year Escalation 12
  1.0610,                                 !- Year Escalation 13
  1.0787,                                 !- Year Escalation 14
  1.0942,                                 !- Year Escalation 15
  1.1098,                                 !- Year Escalation 16
  1.1220,                                 !- Year Escalation 17
  1.1308,                                 !- Year Escalation 18
  1.1386,                                 !- Year Escalation 19
  1.1486,                                 !- Year Escalation 20
  1.1619,                                 !- Year Escalation 21
  1.1763,                                 !- Year Escalation 22
  1.1918,                                 !- Year Escalation 23
  1.2118,                                 !- Year Escalation 24
  1.2284,                                 !- Year Escalation 25
  1.2439,                                 !- Year Escalation 26
  1.2605,                                 !- Year Escalation 27
  1.2772,                                 !- Year Escalation 28
  1.2938,                                 !- Year Escalation 29
  1.3115;                                 !- Year Escalation 30

LifeCycleCost:UsePriceEscalation,
  U.S. Avg  Commercial-Coal,              !- Name
  Coal,                                   !- Resource
  2011,                                   !- Escalation Start Year
  January,                                !- Escalation Start Month
  0.9970,                                 !- Year Escalation 1
  1.0089,                                 !- Year Escalation 2
  1.0089,                                 !- Year Escalation 3
  0.9941,                                 !- Year Escalation 4
  0.9941,                                 !- Year Escalation 5
  1.0000,                                 !- Year Escalation 6
  1.0030,                                 !- Year Escalation 7
  1.0059,                                 !- Year Escalation 8
  1.0089,                                 !- Year Escalation 9
  1.0119,                                 !- Year Escalation 10
  1.0148,                                 !- Year Escalation 11
  1.0178,                                 !- Year Escalation 12
  1.0208,                                 !- Year Escalation 13
  1.0267,                                 !- Year Escalation 14
  1.0297,                                 !- Year Escalation 15
  1.0356,                                 !- Year Escalation 16
  1.0415,                                 !- Year Escalation 17
  1.0534,                                 !- Year Escalation 18
  1.0564,                                 !- Year Escalation 19
  1.0593,                                 !- Year Escalation 20
  1.0653,                                 !- Year Escalation 21
  1.0712,                                 !- Year Escalation 22
  1.0742,                                 !- Year Escalation 23
  1.0801,                                 !- Year Escalation 24
  1.0831,                                 !- Year Escalation 25
  1.0831,                                 !- Year Escalation 26
  1.0861,                                 !- Year Escalation 27
  1.0890,                                 !- Year Escalation 28
  1.0920,                                 !- Year Escalation 29
  1.0950;                                 !- Year Escalation 30

Building,
  Building 1,                             !- Name
  ,                                       !- North Axis {deg}
  Suburbs,                                !- Terrain
  ,                                       !- Loads Convergence Tolerance Value {W}
  ,                                       !- Temperature Convergence Tolerance Value {deltaC}
  ,                                       !- Solar Distribution
  ,                                       !- Maximum Number of Warmup Days
  ;                                       !- Minimum Number of Warmup Days

Shading:Building:Detailed,
  Neighbor azimuth 270 distance 15.0,     !- Name
  ,                                       !- Transmittance Schedule Name
  ,                                       !- Number of Vertices
  -69.0158229089193, -64.443827393359, 0, !- X,Y,Z Vertex 1 {m}
  -69.0158229089193, -64.443827393359, 2.7432, !- X,Y,Z Vertex 2 {m}
  -69.0158280705311, 64.443821865554, 2.7432, !- X,Y,Z Vertex 3 {m}
  -69.0158280705311, 64.443821865554, 0;  !- X,Y,Z Vertex 4 {m}

Shading:Building:Detailed,
  Neighbor azimuth 90 distance 15.0,      !- Name
  ,                                       !- Transmittance Schedule Name
  ,                                       !- Number of Vertices
  69.0158246294566, 64.4438255507575, 0,  !- X,Y,Z Vertex 1 {m}
  69.0158246294566, 64.4438255507575, 2.7432, !- X,Y,Z Vertex 2 {m}
  69.0158263499939, -64.4438237081557, 2.7432, !- X,Y,Z Vertex 3 {m}
  69.0158263499939, -64.4438237081557, 0; !- X,Y,Z Vertex 4 {m}

Shading:Building:Detailed,
  Window1 shading surface,                !- Name
  trans schedule winter=0.85 summer=0.7,  !- Transmittance Schedule Name
  ,                                       !- Number of Vertices
  39.527645550002, -64.4441287285603, 0.3048, !- X,Y,Z Vertex 1 {m}
  39.527645550002, -64.4441287285603, 1.40208, !- X,Y,Z Vertex 2 {m}
  36.2595122166687, -64.4441288158137, 1.40208, !- X,Y,Z Vertex 3 {m}
  36.2595122166687, -64.4441288158137, 0.3048; !- X,Y,Z Vertex 4 {m}

Shading:Building:Detailed,
  Window2 shading surface,                !- Name
  trans schedule winter=0.85 summer=0.7,  !- Transmittance Schedule Name
  ,                                       !- Number of Vertices
  -64.4441327472987, 45.8380618709763, 0.3048, !- X,Y,Z Vertex 1 {m}
  -64.4441327472987, 45.8380618709763, 1.28016, !- X,Y,Z Vertex 2 {m}
  -64.4441328071864, 47.3334868709763, 1.28016, !- X,Y,Z Vertex 3 {m}
  -64.4441328071864, 47.3334868709763, 0.3048; !- X,Y,Z Vertex 4 {m}

Shading:Building:Detailed,
  Window3 shading surface,                !- Name
  trans schedule winter=0.85 summer=0.7,  !- Transmittance Schedule Name
  ,                                       !- Number of Vertices
  26.3741609115362, 64.4441306575493, 0.3048, !- X,Y,Z Vertex 1 {m}
  26.3741609115362, 64.4441306575493, 1.3716, !- X,Y,Z Vertex 2 {m}
  28.734183768679, 64.4441306575493, 1.3716, !- X,Y,Z Vertex 3 {m}
  28.734183768679, 64.4441306575493, 0.3048; !- X,Y,Z Vertex 4 {m}

Shading:Building:Detailed,
  Window4 shading surface,                !- Name
  trans schedule winter=0.85 summer=0.7,  !- Transmittance Schedule Name
  ,                                       !- Number of Vertices
  64.4441315189152, -45.6089622757324, 0.3048, !- X,Y,Z Vertex 1 {m}
  64.4441315189152, -45.6089622757324, 1.46304, !- X,Y,Z Vertex 2 {m}
  64.4441315419361, -47.3334885915218, 1.46304, !- X,Y,Z Vertex 3 {m}
  64.4441315419361, -47.3334885915218, 0.3048; !- X,Y,Z Vertex 4 {m}

Zone,
  attic - vented,                         !- Name
  ,                                       !- Direction of Relative North {deg}
  0,                                      !- X Origin {m}
  0,                                      !- Y Origin {m}
  0,                                      !- Z Origin {m}
  ,                                       !- Type
  1,                                      !- Multiplier
  ,                                       !- Ceiling Height {m}
  511.284738876887,                       !- Volume {m3}
  ,                                       !- Floor Area {m2}
  ,                                       !- Zone Inside Convection Algorithm
  ,                                       !- Zone Outside Convection Algorithm
  Yes;                                    !- Part of Total Floor Area

Space,
  attic - vented 1,                       !- Name
  attic - vented,                         !- Zone Name
  ,                                       !- Ceiling Height {m}
  ,                                       !- Volume {m3}
  ;                                       !- Floor Area {m2}

BuildingSurface:Detailed,
  Roof1,                                  !- Name
  Roof,                                   !- Surface Type
  Roof1 construction,                     !- Construction Name
  attic - vented,                         !- Zone Name
  attic - vented 1,                       !- Space Name
  Outdoors,                               !- Outside Boundary Condition
  ,                                       !- Outside Boundary Condition Object
  SunExposed,                             !- Sun Exposure
  WindExposed,                            !- Wind Exposure
  ,                                       !- View Factor to Ground
  ,                                       !- Number of Vertices
  35.3304816534489, -64.4438243485465, 2.7432, !- X,Y,Z Vertex 1 {m}
  35.3304816534489, -52.217430461484, 8.85639694353126, !- X,Y,Z Vertex 2 {m}
  21.660957727869, -52.217430461484, 8.85639694353126, !- X,Y,Z Vertex 3 {m}
  21.660957727869, -64.4438243485465, 2.7432; !- X,Y,Z Vertex 4 {m}

BuildingSurface:Detailed,
  Roof2,                                  !- Name
  Roof,                                   !- Surface Type
  Roof2 construction,                     !- Construction Name
  attic - vented,                         !- Zone Name
  attic - vented 1,                       !- Space Name
  Outdoors,                               !- Outside Boundary Condition
  ,                                       !- Outside Boundary Condition Object
  SunExposed,                             !- Sun Exposure
  WindExposed,                            !- Wind Exposure
  ,                                       !- View Factor to Ground
  ,                                       !- Number of Vertices
  -64.4438281616205, 48.2625173275436, 2.7432, !- X,Y,Z Vertex 1 {m}
  -60.2072178033269, 48.2625173840986, 4.86150517914676, !- X,Y,Z Vertex 2 {m}
  -60.2072178665574, 52.9991917617606, 4.86150517914676, !- X,Y,Z Vertex 3 {m}
  -64.4438282248509, 52.9991917052056, 2.7432; !- X,Y,Z Vertex 4 {m}

BuildingSurface:Detailed,
  Roof3,                                  !- Name
  Roof,                                   !- Surface Type
  Roof3 construction,                     !- Construction Name
  attic - vented,                         !- Zone Name
  attic - vented 1,                       !- Space Name
  Outdoors,                               !- Outside Boundary Condition
  ,                                       !- Outside Boundary Condition Object
  SunExposed,                             !- Sun Exposure
  WindExposed,                            !- Wind Exposure
  ,                                       !- View Factor to Ground
  ,                                       !- Number of Vertices
  64.4438268730957, -48.2625190480809, 2.7432, !- X,Y,Z Vertex 1 {m}
  60.2072165148021, -48.2625189915259, 4.86150517914676, !- X,Y,Z Vertex 2 {m}
  60.2072164515717, -52.9991933691879, 4.86150517914676, !- X,Y,Z Vertex 3 {m}
  64.4438268098652, -52.999193425743, 2.7432; !- X,Y,Z Vertex 4 {m}

BuildingSurface:Detailed,
  Roof4,                                  !- Name
  Roof,                                   !- Surface Type
  Roof4 construction,                     !- Construction Name
  attic - vented,                         !- Zone Name
  attic - vented 1,                       !- Space Name
  Outdoors,                               !- Outside Boundary Condition
  ,                                       !- Outside Boundary Condition Object
  SunExposed,                             !- Sun Exposure
  WindExposed,                            !- Wind Exposure
  ,                                       !- View Factor to Ground
  ,                                       !- Number of Vertices
  31.5061877537078, 64.443826172836, 2.7432, !- X,Y,Z Vertex 1 {m}
  31.5061874406217, 52.716985339534, 8.60662041665102, !- X,Y,Z Vertex 2 {m}
  44.6171940729135, 52.7169849894929, 8.60662041665102, !- X,Y,Z Vertex 3 {m}
  44.6171943859996, 64.443825822795, 2.7432; !- X,Y,Z Vertex 4 {m}

BuildingSurface:Detailed,
  Surface 1 Reversed,                     !- Name
  Floor,                                  !- Surface Type
  Floor1 construction,                    !- Construction Name
  attic - vented,                         !- Zone Name
  attic - vented 1,                       !- Space Name
  Surface,                                !- Outside Boundary Condition
  Floor1,                                 !- Outside Boundary Condition Object
  NoSun,                                  !- Sun Exposure
  NoWind,                                 !- Wind Exposure
  ,                                       !- View Factor to Ground
  ,                                       !- Number of Vertices
  -3.6576, -3.6576, 2.7432,               !- X,Y,Z Vertex 1 {m}
  -3.6576, 3.6576, 2.7432,                !- X,Y,Z Vertex 2 {m}
  3.6576, 3.6576, 2.7432,                 !- X,Y,Z Vertex 3 {m}
  3.6576, -3.6576, 2.7432;                !- X,Y,Z Vertex 4 {m}

BuildingSurface:Detailed,
  Surface 1 Reversed 2,                   !- Name
  Floor,                                  !- Surface Type
  Floor3 construction Reversed,           !- Construction Name
  attic - vented,                         !- Zone Name
  attic - vented 1,                       !- Space Name
  Surface,                                !- Outside Boundary Condition
  Floor3,                                 !- Outside Boundary Condition Object
  NoSun,                                  !- Sun Exposure
  NoWind,                                 !- Wind Exposure
  ,                                       !- View Factor to Ground
  ,                                       !- Number of Vertices
  -8.76796815687648, -8.76796815687648, 2.7432, !- X,Y,Z Vertex 1 {m}
  -8.76796815687648, 8.76796815687648, 2.7432, !- X,Y,Z Vertex 2 {m}
  8.76796815687648, 8.76796815687648, 2.7432, !- X,Y,Z Vertex 3 {m}
  8.76796815687648, -8.76796815687648, 2.7432; !- X,Y,Z Vertex 4 {m}

BuildingSurface:Detailed,
  Wall10,                                 !- Name
  Wall,                                   !- Surface Type
  Wall10 construction,                    !- Construction Name
  attic - vented,                         !- Zone Name
  attic - vented 1,                       !- Space Name
  Outdoors,                               !- Outside Boundary Condition
  ,                                       !- Outside Boundary Condition Object
  SunExposed,                             !- Sun Exposure
  WindExposed,                            !- Wind Exposure
  ,                                       !- View Factor to Ground
  ,                                       !- Number of Vertices
  64.4438264919519, -35.1587418757364, 0.3048, !- X,Y,Z Vertex 1 {m}
  64.4438264919519, -35.1587418757364, 2.7432, !- X,Y,Z Vertex 2 {m}
  64.4438266190514, -44.6799318757364, 2.7432, !- X,Y,Z Vertex 3 {m}
  64.4438266190514, -44.6799318757364, 0.3048; !- X,Y,Z Vertex 4 {m}

BuildingSurface:Detailed,
  Wall11,                                 !- Name
  Wall,                                   !- Surface Type
  Wall11 construction,                    !- Construction Name
  attic - vented,                         !- Zone Name
  attic - vented 1,                       !- Space Name
  Outdoors,                               !- Outside Boundary Condition
  ,                                       !- Outside Boundary Condition Object
  SunExposed,                             !- Sun Exposure
  WindExposed,                            !- Wind Exposure
  ,                                       !- View Factor to Ground
  ,                                       !- Number of Vertices
  22.7019305115362, 64.4438258110858, 0.3048, !- X,Y,Z Vertex 1 {m}
  22.7019305115362, 64.4438258110858, 2.7432, !- X,Y,Z Vertex 2 {m}
  25.4451305115362, 64.4438258110858, 2.7432, !- X,Y,Z Vertex 3 {m}
  25.4451305115362, 64.4438258110858, 0.3048; !- X,Y,Z Vertex 4 {m}

BuildingSurface:Detailed,
  Wall9,                                  !- Name
  Wall,                                   !- Surface Type
  Wall9 construction,                     !- Construction Name
  attic - vented,                         !- Zone Name
  attic - vented 1,                       !- Space Name
  Outdoors,                               !- Outside Boundary Condition
  ,                                       !- Outside Boundary Condition Object
  SunExposed,                             !- Sun Exposure
  WindExposed,                            !- Wind Exposure
  ,                                       !- View Factor to Ground
  ,                                       !- Number of Vertices
  -64.4438264525779, 16.8419806709886, 0.3048, !- X,Y,Z Vertex 1 {m}
  -64.4438264525779, 16.8419806709886, 2.7432, !- X,Y,Z Vertex 2 {m}
  -64.4438268338765, 26.3631706709886, 2.7432, !- X,Y,Z Vertex 3 {m}
  -64.4438268338765, 26.3631706709886, 0.3048; !- X,Y,Z Vertex 4 {m}

ZoneInfiltration:EffectiveLeakageArea,
  infil|attic - vented 1,                 !- Name
  attic - vented 1,                       !- Zone or Space Name
  Always On Discrete,                     !- Schedule Name
  12032.8370439552,                       !- Effective Air Leakage Area {cm2}
  0.000594294961061546,                   !- Stack Coefficient
  4.57670565623968e-05;                   !- Wind Coefficient

ZoneMixing,
  whole house fan mix,                    !- Name
  attic - vented,                         !- Zone or Space Name
  Always On Continuous,                   !- Schedule Name
  Flow/Zone,                              !- Design Flow Rate Calculation Method
  0,                                      !- Design Flow Rate {m3/s}
  ,                                       !- Flow Rate per Floor Area {m3/s-m2}
  ,                                       !- Flow Rate per Person {m3/s-person}
  ,                                       !- Air Changes per Hour {1/hr}
  living space;                           !- Source Zone or Space Name

Schedule:Constant,
  Always On Continuous,                   !- Name
  Fractional 1,                           !- Schedule Type Limits Name
  1;                                      !- Hourly Value

Zone,
  central ac airloop ret air zone,        !- Name
  ,                                       !- Direction of Relative North {deg}
  0,                                      !- X Origin {m}
  0,                                      !- Y Origin {m}
  0,                                      !- Z Origin {m}
  ,                                       !- Type
  1,                                      !- Multiplier
  ,                                       !- Ceiling Height {m}
  1,                                      !- Volume {m3}
  ,                                       !- Floor Area {m2}
  ,                                       !- Zone Inside Convection Algorithm
  ,                                       !- Zone Outside Convection Algorithm
  No;                                     !- Part of Total Floor Area

Space,
  central ac airloop ret air space,       !- Name
  central ac airloop ret air zone,        !- Zone Name
  ,                                       !- Ceiling Height {m}
  ,                                       !- Volume {m3}
  ,                                       !- Floor Area {m2}
  Plenum Space Type;                      !- Space Type

SpaceList,
  Plenum Space Type,                      !- Name
  central ac airloop ret air space;       !- Space Name 1

BuildingSurface:Detailed,
  Surface 1,                              !- Name
  Floor,                                  !- Surface Type
  AdiabaticConst,                         !- Construction Name
  central ac airloop ret air zone,        !- Zone Name
  central ac airloop ret air space,       !- Space Name
  Adiabatic,                              !- Outside Boundary Condition
  ,                                       !- Outside Boundary Condition Object
  NoSun,                                  !- Sun Exposure
  NoWind,                                 !- Wind Exposure
  ,                                       !- View Factor to Ground
  ,                                       !- Number of Vertices
  0, 0, 0,                                !- X,Y,Z Vertex 1 {m}
  0, 1, 0,                                !- X,Y,Z Vertex 2 {m}
  1, 1, 0,                                !- X,Y,Z Vertex 3 {m}
  1, 0, 0;                                !- X,Y,Z Vertex 4 {m}

SurfaceProperty:ConvectionCoefficients,
  Surface 1,                              !- Surface Name
  Inside,                                 !- Convection Coefficient 1 Location
  Value,                                  !- Convection Coefficient 1 Type
  30;                                     !- Convection Coefficient 1 {W/m2-K}

BuildingSurface:Detailed,
  Surface 2,                              !- Name
  Wall,                                   !- Surface Type
  AdiabaticConst,                         !- Construction Name
  central ac airloop ret air zone,        !- Zone Name
  central ac airloop ret air space,       !- Space Name
  Adiabatic,                              !- Outside Boundary Condition
  ,                                       !- Outside Boundary Condition Object
  NoSun,                                  !- Sun Exposure
  NoWind,                                 !- Wind Exposure
  ,                                       !- View Factor to Ground
  ,                                       !- Number of Vertices