
OS:Version,
  {7ffa74d8-be3d-489b-b9c4-80a03d88fe23}, !- Handle
  3.6.1;                                  !- Version Identifier

OS:WeatherFile,
  {b5d4ff11-fc27-4947-ba14-8a8c361a893e}, !- Handle
  Pittsburgh Allegheny Co Ap,             !- City
  PA,                                     !- State Province Region
  USA,                                    !- Country
  TMY3,                                   !- Data Source
  725205,                                 !- WMO Number
  40.35,                                  !- Latitude {deg}
  -79.92,                                 !- Longitude {deg}
  -5,                                     !- Time Zone {hr}
  380,                                    !- Elevation {m}
  C:/Users/ylou2/Desktop/resstock-3.1.0/national_baseline/run7/run/../../../weather/G4200030.epw, !- Url
  8CEA9E1B,                               !- Checksum
  ,                                       !- Start Date Actual Year
  Sunday;                                 !- Start Day of Week

OS:YearDescription,
  {f48b9bde-35fa-40f4-9225-62d855572064}, !- Handle
  2007,                                   !- Calendar Year
  ,                                       !- Day of Week for Start Day
  ;                                       !- Is Leap Year

OS:Site,
  {e319608d-18d1-400f-a1af-49b21373d5bf}, !- Handle
  Pittsburgh Allegheny Co Ap_PA_USA,      !- Name
  40.35,                                  !- Latitude {deg}
  -79.92,                                 !- Longitude {deg}
  -5,                                     !- Time Zone {hr}
  380,                                    !- Elevation {m}
  Suburbs;                                !- Terrain

OS:RunPeriodControl:DaylightSavingTime,
  {bab70e8f-61ae-4f1b-9dd8-2966fe8aaebc}, !- Handle
  Mar 12,                                 !- Start Date
  Nov 5;                                  !- End Date

OS:Site:GroundTemperature:Shallow,
  {694b6f3a-1fa3-4ecd-9353-4476280c5b25}, !- Handle
  7.2735286128281,                        !- January Surface Ground Temperature {C}
  5.5828246419054,                        !- February Surface Ground Temperature {C}
  5.44742700468877,                       !- March Surface Ground Temperature {C}
  6.24975242777879,                       !- April Surface Ground Temperature {C}
  9.47064191061337,                       !- May Surface Ground Temperature {C}
  12.6765271238637,                       !- June Surface Ground Temperature {C}
  15.4558582676245,                       !- July Surface Ground Temperature {C}
  17.2164961909406,                       !- August Surface Ground Temperature {C}
  17.3660720530231,                       !- September Surface Ground Temperature {C}
  15.9340890252523,                       !- October Surface Ground Temperature {C}
  13.2256324574437,                       !- November Surface Ground Temperature {C}
  10.1180907447359;                       !- December Surface Ground Temperature {C}

OS:Site:GroundTemperature:Deep,
  {4691b8ce-1745-4bda-a2f9-429e2a2bdf70}, !- Handle
  11.239600456621,                        !- January Deep Ground Temperature {C}
  11.239600456621,                        !- February Deep Ground Temperature {C}
  11.239600456621,                        !- March Deep Ground Temperature {C}
  11.239600456621,                        !- April Deep Ground Temperature {C}
  11.239600456621,                        !- May Deep Ground Temperature {C}
  11.239600456621,                        !- June Deep Ground Temperature {C}
  11.239600456621,                        !- July Deep Ground Temperature {C}
  11.239600456621,                        !- August Deep Ground Temperature {C}
  11.239600456621,                        !- September Deep Ground Temperature {C}
  11.239600456621,                        !- October Deep Ground Temperature {C}
  11.239600456621,                        !- November Deep Ground Temperature {C}
  11.239600456621;                        !- December Deep Ground Temperature {C}

OS:SimulationControl,
  {71382d93-6f27-46a8-95b8-a0c2bca8ff08}, !- Handle
  ,                                       !- Do Zone Sizing Calculation
  ,                                       !- Do System Sizing Calculation
  ,                                       !- Do Plant Sizing Calculation
  No;                                     !- Run Simulation for Sizing Periods

OS:Timestep,
  {291430af-b05f-40cc-a504-6f8a1e733362}, !- Handle
  1;                                      !- Number of Timesteps per Hour

OS:ShadowCalculation,
  {e5d370cb-5ee1-45c4-99fc-b2ae631adf40}, !- Handle
  PolygonClipping,                        !- Shading Calculation Method
  ,                                       !- Shading Calculation Update Frequency Method
  20,                                     !- Shading Calculation Update Frequency
  200,                                    !- Maximum Figures in Shadow Overlap Calculations
  ,                                       !- Polygon Clipping Algorithm
  512,                                    !- Pixel Counting Resolution
  DetailedSkyDiffuseModeling,             !- Sky Diffuse Modeling Algorithm
  No,                                     !- Output External Shading Calculation Results
  No,                                     !- Disable Self-Shading Within Shading Zone Groups
  No;                                     !- Disable Self-Shading From Shading Zone Groups to Other Zones

OS:SurfaceConvectionAlgorithm:Outside,
  {4265325f-1393-467a-9580-2d8f038dc5e1}, !- Handle
  DOE-2;                                  !- Algorithm

OS:SurfaceConvectionAlgorithm:Inside,
  {03888846-4b3d-4176-8fe1-c8ab37e63744}, !- Handle
  TARP;                                   !- Algorithm

OS:ZoneCapacitanceMultiplier:ResearchSpecial,
  {8fb46817-699d-439e-9319-149e73a8a0a5}, !- Handle
  1,                                      !- Temperature Capacity Multiplier
  15,                                     !- Humidity Capacity Multiplier
  ;                                       !- Carbon Dioxide Capacity Multiplier

OS:ConvergenceLimits,
  {551d952f-f902-46d0-b256-9d439b7a8194}, !- Handle
  0;                                      !- Minimum System Timestep {minutes}

OS:RunPeriod,
  {f8575c08-3bb1-49b3-b286-892bbb354ef1}, !- Handle
  Run Period 1,                           !- Name
  1,                                      !- Begin Month
  1,                                      !- Begin Day of Month
  12,                                     !- End Month
  31,                                     !- End Day of Month
  ,                                       !- Use Weather File Holidays and Special Days
  ,                                       !- Use Weather File Daylight Saving Period
  ,                                       !- Apply Weekend Holiday Rule
  ,                                       !- Use Weather File Rain Indicators
  ,                                       !- Use Weather File Snow Indicators
  ;                                       !- Number of Times Runperiod to be Repeated

OS:PerformancePrecisionTradeoffs,
  {e7f8695d-fe8b-4630-9c66-708f70eb9146}, !- Handle
  ,                                       !- Use Coil Direct Solutions
  CarrollMRT;                             !- Zone Radiant Exchange Algorithm

OS:ThermalZone,
  {49eff246-8561-4a7c-bb96-953731dbe92e}, !- Handle
  living space,                           !- Name
  ,                                       !- Multiplier
  ,                                       !- Ceiling Height {m}
  384.656044105728,                       !- Volume {m3}
  ,                                       !- Floor Area {m2}
  ,                                       !- Zone Inside Convection Algorithm
  ,                                       !- Zone Outside Convection Algorithm
  ,                                       !- Zone Conditioning Equipment List Name
  {17475eaf-f0a1-43cc-b7f7-348711bfaf9f}, !- Zone Air Inlet Port List
  {2e9d11c5-16a8-43e1-a364-7c0883445b36}, !- Zone Air Exhaust Port List
  {e4154b2d-f8f8-44fe-8bb7-af01bd5519e6}, !- Zone Air Node Name
  {f0628c8b-d6cf-42a9-a27b-4bff2c627301}, !- Zone Return Air Port List
  ,                                       !- Primary Daylighting Control Name
  ,                                       !- Fraction of Zone Controlled by Primary Daylighting Control
  ,                                       !- Secondary Daylighting Control Name
  ,                                       !- Fraction of Zone Controlled by Secondary Daylighting Control
  ,                                       !- Illuminance Map Name
  ,                                       !- Group Rendering Name
  {29090404-a2c6-49ee-b360-76c6ac592781}, !- Thermostat Name
  No;                                     !- Use Ideal Air Loads

OS:Node,
  {ba85b7f1-e7b4-4d45-8ac3-908b4ff7a584}, !- Handle
  Node 1,                                 !- Name
  {e4154b2d-f8f8-44fe-8bb7-af01bd5519e6}, !- Inlet Port
  ;                                       !- Outlet Port

OS:Connection,
  {e4154b2d-f8f8-44fe-8bb7-af01bd5519e6}, !- Handle
  {49eff246-8561-4a7c-bb96-953731dbe92e}, !- Source Object
  11,                                     !- Outlet Port
  {ba85b7f1-e7b4-4d45-8ac3-908b4ff7a584}, !- Target Object
  2;                                      !- Inlet Port

OS:PortList,
  {17475eaf-f0a1-43cc-b7f7-348711bfaf9f}, !- Handle
  {49eff246-8561-4a7c-bb96-953731dbe92e}, !- HVAC Component
  {631acb3b-12d4-48b4-8366-66d3b659c352}, !- Port 1
  {4e3a8019-b2ec-4634-a526-2b1ab25db017}; !- Port 2

OS:PortList,
  {2e9d11c5-16a8-43e1-a364-7c0883445b36}, !- Handle
  {49eff246-8561-4a7c-bb96-953731dbe92e}, !- HVAC Component
  {0cc351c9-a28a-4417-862c-2d77d182ee4e}; !- Port 1

OS:PortList,
  {f0628c8b-d6cf-42a9-a27b-4bff2c627301}, !- Handle
  {49eff246-8561-4a7c-bb96-953731dbe92e}, !- HVAC Component
  {8eef7cb7-0637-490f-8aac-456b3f0c7d1a}; !- Port 1

OS:Sizing:Zone,
  {1a28dda3-abf6-48dd-8259-7162cea71c35}, !- Handle
  {49eff246-8561-4a7c-bb96-953731dbe92e}, !- Zone or ZoneList Name
  SupplyAirTemperature,                   !- Zone Cooling Design Supply Air Temperature Input Method
  14,                                     !- Zone Cooling Design Supply Air Temperature {C}
  11.11,                                  !- Zone Cooling Design Supply Air Temperature Difference {deltaC}
  SupplyAirTemperature,                   !- Zone Heating Design Supply Air Temperature Input Method
  40,                                     !- Zone Heating Design Supply Air Temperature {C}
  11.11,                                  !- Zone Heating Design Supply Air Temperature Difference {deltaC}
  0.0085,                                 !- Zone Cooling Design Supply Air Humidity Ratio {kg-H2O/kg-air}
  0.008,                                  !- Zone Heating Design Supply Air Humidity Ratio {kg-H2O/kg-air}
  ,                                       !- Zone Heating Sizing Factor
  ,                                       !- Zone Cooling Sizing Factor
  DesignDay,                              !- Cooling Design Air Flow Method
  ,                                       !- Cooling Design Air Flow Rate {m3/s}
  ,                                       !- Cooling Minimum Air Flow per Zone Floor Area {m3/s-m2}
  ,                                       !- Cooling Minimum Air Flow {m3/s}
  ,                                       !- Cooling Minimum Air Flow Fraction
  DesignDay,                              !- Heating Design Air Flow Method
  ,                                       !- Heating Design Air Flow Rate {m3/s}
  ,                                       !- Heating Maximum Air Flow per Zone Floor Area {m3/s-m2}
  ,                                       !- Heating Maximum Air Flow {m3/s}
  ,                                       !- Heating Maximum Air Flow Fraction
  No,                                     !- Account for Dedicated Outdoor Air System
  NeutralSupplyAir,                       !- Dedicated Outdoor Air System Control Strategy
  autosize,                               !- Dedicated Outdoor Air Low Setpoint Temperature for Design {C}
  autosize,                               !- Dedicated Outdoor Air High Setpoint Temperature for Design {C}
  Sensible Load Only No Latent Load,      !- Zone Load Sizing Method
  HumidityRatioDifference,                !- Zone Latent Cooling Design Supply Air Humidity Ratio Input Method
  ,                                       !- Zone Dehumidification Design Supply Air Humidity Ratio {kgWater/kgDryAir}
  0.005,                                  !- Zone Cooling Design Supply Air Humidity Ratio Difference {kgWater/kgDryAir}
  HumidityRatioDifference,                !- Zone Latent Heating Design Supply Air Humidity Ratio Input Method
  ,                                       !- Zone Humidification Design Supply Air Humidity Ratio {kgWater/kgDryAir}
  0.005;                                  !- Zone Humidification Design Supply Air Humidity Ratio Difference {kgWater/kgDryAir}

OS:ZoneHVAC:EquipmentList,
  {87e14890-c157-4974-92d9-07d498b2716e}, !- Handle
  Zone HVAC Equipment List 1,             !- Name
  {49eff246-8561-4a7c-bb96-953731dbe92e}, !- Thermal Zone
  ,                                       !- Load Distribution Scheme
  {69e75179-8e2a-4c82-ac49-8aa2c6d91853}, !- Zone Equipment 1
  1,                                      !- Zone Equipment Cooling Sequence 1
  1,                                      !- Zone Equipment Heating or No-Load Sequence 1
  {3975b306-6984-4d8a-8800-94ac53f71ef2}, !- Zone Equipment Sequential Cooling Fraction Schedule Name 1
  {847737d7-e3a6-4834-b2a2-1e0003179390}, !- Zone Equipment Sequential Heating Fraction Schedule Name 1
  {3cb41e1e-e83a-4f63-b2f4-2a2faafbb996}, !- Zone Equipment 2
  2,                                      !- Zone Equipment Cooling Sequence 2
  2,                                      !- Zone Equipment Heating or No-Load Sequence 2
  {323471bb-6deb-482f-af74-9ffcf12fcc4c}, !- Zone Equipment Sequential Cooling Fraction Schedule Name 2
  {69cf8196-8ed3-4cb3-acbd-c09a175cc999}, !- Zone Equipment Sequential Heating Fraction Schedule Name 2
  {a7e83521-934d-45cd-a61d-574af6018d16}, !- Zone Equipment 3
  3,                                      !- Zone Equipment Cooling Sequence 3
  3,                                      !- Zone Equipment Heating or No-Load Sequence 3
  {4d8147be-87be-4595-8a1e-829bee522cae}, !- Zone Equipment Sequential Cooling Fraction Schedule Name 3
  {ae9746f4-047e-4022-8ddb-c206b12ea08d}; !- Zone Equipment Sequential Heating Fraction Schedule Name 3

OS:Space,
  {d0e96815-28bf-45a6-b989-2373cbaa5320}, !- Handle
  living space 1,                         !- Name
  ,                                       !- Space Type Name
  ,                                       !- Default Construction Set Name
  ,                                       !- Default Schedule Set Name
  ,                                       !- Direction of Relative North {deg}
  ,                                       !- X Origin {m}
  ,                                       !- Y Origin {m}
  ,                                       !- Z Origin {m}
  ,                                       !- Building Story Name
  {49eff246-8561-4a7c-bb96-953731dbe92e}; !- Thermal Zone Name

OS:Schedule:Ruleset,
  {d2894956-0451-42e3-aef9-0d1a871b4b3e}, !- Handle
  heating setpoint,                       !- Name
  {ef6bdf98-43eb-44b4-bda2-6c4f0216c7fa}, !- Schedule Type Limits Name
  {4fb12e71-e1f3-49b9-92b9-8febac42390d}; !- Default Day Schedule Name

OS:Schedule:Day,
  {4fb12e71-e1f3-49b9-92b9-8febac42390d}, !- Handle
  heating setpoint default day,           !- Name
  {ef6bdf98-43eb-44b4-bda2-6c4f0216c7fa}, !- Schedule Type Limits Name
  ,                                       !- Interpolate to Timestep
  24,                                     !- Hour 1
  0,                                      !- Minute 1
  0;                                      !- Value Until Time 1

OS:Schedule:Rule,
  {559d5089-5526-48e3-918b-a752e97a0d19}, !- Handle
  heating setpoint allday ruleset1,       !- Name
  {d2894956-0451-42e3-aef9-0d1a871b4b3e}, !- Schedule Ruleset Name
  0,                                      !- Rule Order
  {33f717b4-34f7-41fe-92f5-36bbdc9e91b4}, !- Day Schedule Name
  Yes,                                    !- Apply Sunday
  Yes,                                    !- Apply Monday
  Yes,                                    !- Apply Tuesday
  Yes,                                    !- Apply Wednesday
  Yes,                                    !- Apply Thursday
  Yes,                                    !- Apply Friday
  Yes,                                    !- Apply Saturday
  DateRange,                              !- Date Specification Type
  1,                                      !- Start Month
  1,                                      !- Start Day
  12,                                     !- End Month
  31;                                     !- End Day

OS:Schedule:Day,
  {33f717b4-34f7-41fe-92f5-36bbdc9e91b4}, !- Handle
  heating setpoint allday1,               !- Name
  {ef6bdf98-43eb-44b4-bda2-6c4f0216c7fa}, !- Schedule Type Limits Name
  ,                                       !- Interpolate to Timestep
  24,                                     !- Hour 1
  0,                                      !- Minute 1
  16.6666666666667;                       !- Value Until Time 1

OS:Schedule:Ruleset,
  {0c875e01-c547-4245-b6a9-16442b9636b3}, !- Handle
  cooling setpoint,                       !- Name
  {ef6bdf98-43eb-44b4-bda2-6c4f0216c7fa}, !- Schedule Type Limits Name
  {2d151b38-f425-4d59-b02f-1b91c4401498}; !- Default Day Schedule Name

OS:Schedule:Day,
  {2d151b38-f425-4d59-b02f-1b91c4401498}, !- Handle
  cooling setpoint default day,           !- Name
  {ef6bdf98-43eb-44b4-bda2-6c4f0216c7fa}, !- Schedule Type Limits Name
  ,                                       !- Interpolate to Timestep
  24,                                     !- Hour 1
  0,                                      !- Minute 1
  0;                                      !- Value Until Time 1

OS:Schedule:Rule,
  {97e02b5a-f1de-4f4e-a9aa-d5215496f108}, !- Handle
  cooling setpoint allday ruleset1,       !- Name
  {0c875e01-c547-4245-b6a9-16442b9636b3}, !- Schedule Ruleset Name
  0,                                      !- Rule Order
  {ab20e264-bdf7-4fab-b4ed-b75857c751bd}, !- Day Schedule Name
  Yes,                                    !- Apply Sunday
  Yes,                                    !- Apply Monday
  Yes,                                    !- Apply Tuesday
  Yes,                                    !- Apply Wednesday
  Yes,                                    !- Apply Thursday
  Yes,                                    !- Apply Friday
  Yes,                                    !- Apply Saturday
  DateRange,                              !- Date Specification Type
  1,                                      !- Start Month
  1,                                      !- Start Day
  12,                                     !- End Month
  31;                                     !- End Day

OS:Schedule:Day,
  {ab20e264-bdf7-4fab-b4ed-b75857c751bd}, !- Handle
  cooling setpoint allday1,               !- Name
  {ef6bdf98-43eb-44b4-bda2-6c4f0216c7fa}, !- Schedule Type Limits Name
  ,                                       !- Interpolate to Timestep
  9,                                      !- Hour 1
  0,                                      !- Minute 1
  22.7777777777778,                       !- Value Until Time 1
  24,                                     !- Hour 2
  0,                                      !- Minute 2
  25.5555555555556;                       !- Value Until Time 2

OS:ThermostatSetpoint:DualSetpoint,
  {29090404-a2c6-49ee-b360-76c6ac592781}, !- Handle
  living space temperature setpoint,      !- Name
  {d2894956-0451-42e3-aef9-0d1a871b4b3e}, !- Heating Setpoint Temperature Schedule Name
  {0c875e01-c547-4245-b6a9-16442b9636b3}; !- Cooling Setpoint Temperature Schedule Name

OS:ScheduleTypeLimits,
  {ef6bdf98-43eb-44b4-bda2-6c4f0216c7fa}, !- Handle
  Temperature,                            !- Name
  ,                                       !- Lower Limit Value
  ,                                       !- Upper Limit Value
  Continuous,                             !- Numeric Type
  Temperature;                            !- Unit Type

OS:Surface,
  {30a5eadb-5b55-4d4e-a54c-42e821a6635d}, !- Handle
  Roof1,                                  !- Name
  RoofCeiling,                            !- Surface Type
  {764e9013-5798-43ba-b5af-044460b977fc}, !- Construction Name
  {8fc5117e-8baf-4d97-ba77-ced5633cadf5}, !- Space Name
  Outdoors,                               !- Outside Boundary Condition
  ,                                       !- Outside Boundary Condition Object
  SunExposed,                             !- Sun Exposure
  WindExposed,                            !- Wind Exposure
  ,                                       !- View Factor to Ground
  ,                                       !- Number of Vertices
  -38.7044698854564, 11.9896959488986, 2.7432, !- X,Y,Z Vertex 1 {m}
  -34.5048611155941, 7.79008734721964, 5.71277178003833, !- X,Y,Z Vertex 2 {m}
  -29.8095559594706, 12.4853926913778, 5.71277178003833, !- X,Y,Z Vertex 3 {m}
  -34.0091647293329, 16.6850012930568, 2.7432; !- X,Y,Z Vertex 4 {m}

OS:AdditionalProperties,
  {4cef5102-e567-4bf4-878f-fb5d6930c5cb}, !- Handle
  {30a5eadb-5b55-4d4e-a54c-42e821a6635d}, !- Object Name
  Length,                                 !- Feature Name 1
  Double,                                 !- Feature Data Type 1
  21.785316155612705,                     !- Feature Value 1
  Width,                                  !- Feature Name 2
  Double,                                 !- Feature Data Type 2
  21.785316155612708,                     !- Feature Value 2
  Azimuth,                                !- Feature Name 3
  Integer,                                !- Feature Data Type 3
  315,                                    !- Feature Value 3
  Tilt,                                   !- Feature Name 4
  Double,                                 !- Feature Data Type 4
  0.5,                                    !- Feature Value 4
  SurfaceType,                            !- Feature Name 5
  String,                                 !- Feature Data Type 5
  Roof;                                   !- Feature Value 5

OS:ThermalZone,
  {3fca12f8-a73d-4ee4-b5b4-5509f7c01408}, !- Handle
  attic - vented,                         !- Name
  ,                                       !- Multiplier
  ,                                       !- Ceiling Height {m}
  52.2119809419152,                       !- Volume {m3}
  ,                                       !- Floor Area {m2}
  ,                                       !- Zone Inside Convection Algorithm
  ,                                       !- Zone Outside Convection Algorithm
  ,                                       !- Zone Conditioning Equipment List Name
  {bb6c93a7-e63c-4dcb-964e-2d2806794203}, !- Zone Air Inlet Port List
  {351ed462-59c7-46c5-8cac-501a91da8b57}, !- Zone Air Exhaust Port List
  {22067c42-e580-4acf-88df-2fbe61aeefcb}, !- Zone Air Node Name
  {88da3970-ec99-48e1-864f-f3fab6a7f9d0}, !- Zone Return Air Port List
  ,                                       !- Primary Daylighting Control Name
  ,                                       !- Fraction of Zone Controlled by Primary Daylighting Control
  ,                                       !- Secondary Daylighting Control Name
  ,                                       !- Fraction of Zone Controlled by Secondary Daylighting Control
  ,                                       !- Illuminance Map Name
  ,                                       !- Group Rendering Name
  ,                                       !- Thermostat Name
  No;                                     !- Use Ideal Air Loads

OS:Node,
  {5d3cfeca-c5e5-4cfa-b210-0cdaa3830953}, !- Handle
  Node 2,                                 !- Name
  {22067c42-e580-4acf-88df-2fbe61aeefcb}, !- Inlet Port
  ;                                       !- Outlet Port

OS:Connection,
  {22067c42-e580-4acf-88df-2fbe61aeefcb}, !- Handle
  {3fca12f8-a73d-4ee4-b5b4-5509f7c01408}, !- Source Object
  11,                                     !- Outlet Port
  {5d3cfeca-c5e5-4cfa-b210-0cdaa3830953}, !- Target Object
  2;                                      !- Inlet Port

OS:PortList,
  {bb6c93a7-e63c-4dcb-964e-2d2806794203}, !- Handle
  {3fca12f8-a73d-4ee4-b5b4-5509f7c01408}; !- HVAC Component

OS:PortList,
  {351ed462-59c7-46c5-8cac-501a91da8b57}, !- Handle
  {3fca12f8-a73d-4ee4-b5b4-5509f7c01408}; !- HVAC Component

OS:PortList,
  {88da3970-ec99-48e1-864f-f3fab6a7f9d0}, !- Handle
  {3fca12f8-a73d-4ee4-b5b4-5509f7c01408}; !- HVAC Component

OS:Sizing:Zone,
  {e1b7b270-910e-4ef9-91f1-3d164ff26c94}, !- Handle
  {3fca12f8-a73d-4ee4-b5b4-5509f7c01408}, !- Zone or ZoneList Name
  SupplyAirTemperature,                   !- Zone Cooling Design Supply Air Temperature Input Method
  14,                                     !- Zone Cooling Design Supply Air Temperature {C}
  11.11,                                  !- Zone Cooling Design Supply Air Temperature Difference {deltaC}
  SupplyAirTemperature,                   !- Zone Heating Design Supply Air Temperature Input Method
  40,                                     !- Zone Heating Design Supply Air Temperature {C}
  11.11,                                  !- Zone Heating Design Supply Air Temperature Difference {deltaC}
  0.0085,                                 !- Zone Cooling Design Supply Air Humidity Ratio {kg-H2O/kg-air}
  0.008,                                  !- Zone Heating Design Supply Air Humidity Ratio {kg-H2O/kg-air}
  ,                                       !- Zone Heating Sizing Factor
  ,                                       !- Zone Cooling Sizing Factor
  DesignDay,                              !- Cooling Design Air Flow Method
  ,                                       !- Cooling Design Air Flow Rate {m3/s}
  ,                                       !- Cooling Minimum Air Flow per Zone Floor Area {m3/s-m2}
  ,                                       !- Cooling Minimum Air Flow {m3/s}
  ,                                       !- Cooling Minimum Air Flow Fraction
  DesignDay,                              !- Heating Design Air Flow Method
  ,                                       !- Heating Design Air Flow Rate {m3/s}
  ,                                       !- Heating Maximum Air Flow per Zone Floor Area {m3/s-m2}
  ,                                       !- Heating Maximum Air Flow {m3/s}
  ,                                       !- Heating Maximum Air Flow Fraction
  No,                                     !- Account for Dedicated Outdoor Air System
  NeutralSupplyAir,                       !- Dedicated Outdoor Air System Control Strategy
  autosize,                               !- Dedicated Outdoor Air Low Setpoint Temperature for Design {C}
  autosize,                               !- Dedicated Outdoor Air High Setpoint Temperature for Design {C}
  Sensible Load Only No Latent Load,      !- Zone Load Sizing Method
  HumidityRatioDifference,                !- Zone Latent Cooling Design Supply Air Humidity Ratio Input Method
  ,                                       !- Zone Dehumidification Design Supply Air Humidity Ratio {kgWater/kgDryAir}
  0.005,                                  !- Zone Cooling Design Supply Air Humidity Ratio Difference {kgWater/kgDryAir}
  HumidityRatioDifference,                !- Zone Latent Heating Design Supply Air Humidity Ratio Input Method
  ,                                       !- Zone Humidification Design Supply Air Humidity Ratio {kgWater/kgDryAir}
  0.005;                                  !- Zone Humidification Design Supply Air Humidity Ratio Difference {kgWater/kgDryAir}

OS:ZoneHVAC:EquipmentList,
  {cb593878-699b-4f4b-b0c5-1e4ff8f9c494}, !- Handle
  Zone HVAC Equipment List 2,             !- Name
  {3fca12f8-a73d-4ee4-b5b4-5509f7c01408}; !- Thermal Zone

OS:Space,
  {8fc5117e-8baf-4d97-ba77-ced5633cadf5}, !- Handle
  attic - vented 1,                       !- Name
  ,                                       !- Space Type Name
  ,                                       !- Default Construction Set Name
  ,                                       !- Default Schedule Set Name
  ,                                       !- Direction of Relative North {deg}
  ,                                       !- X Origin {m}
  ,                                       !- Y Origin {m}
  ,                                       !- Z Origin {m}
  ,                                       !- Building Story Name
  {3fca12f8-a73d-4ee4-b5b4-5509f7c01408}; !- Thermal Zone Name

OS:Material,
  {81e696aa-77dd-46a3-b793-529b7de86de9}, !- Handle
  asphalt or fiberglass shingles,         !- Name
  Rough,                                  !- Roughness
  0.00635,                                !- Thickness {m}
  0.162714,                               !- Conductivity {W/m-K}
  1121.4,                                 !- Density {kg/m3}
  1465.45,                                !- Specific Heat {J/kg-K}
  0.9,                                    !- Thermal Absorptance
  0.85,                                   !- Solar Absorptance
  0.85;                                   !- Visible Absorptance

OS:Material,
  {0af0a4d2-d8e1-4053-adf1-ccfb8a068206}, !- Handle
  roof rigid ins,                         !- Name
  Rough,                                  !- Roughness
  0.0028163194147757,                     !- Thickness {m}
  0.029427,                               !- Conductivity {W/m-K}
  32.04,                                  !- Density {kg/m3}
  1214.23,                                !- Specific Heat {J/kg-K}
  0.9,                                    !- Thermal Absorptance
  0.7,                                    !- Solar Absorptance