
Version,
  23.1;                                   !- Version Identifier

Timestep,
  1;                                      !- Number of Timesteps per Hour

LifeCycleCost:Parameters,
  Life Cycle Cost Parameters,             !- Name
  EndOfYear,                              !- Discounting Convention
  ConstantDollar,                         !- Inflation Approach
  0.03,                                   !- Real Discount Rate
  ,                                       !- Nominal Discount Rate
  ,                                       !- Inflation
  ,                                       !- Base Date Month
  2011,                                   !- Base Date Year
  ,                                       !- Service Date Month
  2011,                                   !- Service Date Year
  25,                                     !- Length of Study Period in Years
  ,                                       !- Tax rate
  None;                                   !- Depreciation Method

LifeCycleCost:UsePriceEscalation,
  U.S. Avg  Commercial-Electricity,       !- Name
  Electricity,                            !- Resource
  2011,                                   !- Escalation Start Year
  January,                                !- Escalation Start Month
  0.9838,                                 !- Year Escalation 1
  0.9730,                                 !- Year Escalation 2
  0.9632,                                 !- Year Escalation 3
  0.9611,                                 !- Year Escalation 4
  0.9571,                                 !- Year Escalation 5
  0.9553,                                 !- Year Escalation 6
  0.9539,                                 !- Year Escalation 7
  0.9521,                                 !- Year Escalation 8
  0.9546,                                 !- Year Escalation 9
  0.9550,                                 !- Year Escalation 10
  0.9553,                                 !- Year Escalation 11
  0.9564,                                 !- Year Escalation 12
  0.9575,                                 !- Year Escalation 13
  0.9596,                                 !- Year Escalation 14
  0.9618,                                 !- Year Escalation 15
  0.9614,                                 !- Year Escalation 16
  0.9618,                                 !- Year Escalation 17
  0.9618,                                 !- Year Escalation 18
  0.9593,                                 !- Year Escalation 19
  0.9589,                                 !- Year Escalation 20
  0.9607,                                 !- Year Escalation 21
  0.9625,                                 !- Year Escalation 22
  0.9650,                                 !- Year Escalation 23
  0.9708,                                 !- Year Escalation 24
  0.9751,                                 !- Year Escalation 25
  0.9762,                                 !- Year Escalation 26
  0.9766,                                 !- Year Escalation 27
  0.9766,                                 !- Year Escalation 28
  0.9769,                                 !- Year Escalation 29
  0.9773;                                 !- Year Escalation 30

LifeCycleCost:UsePriceEscalation,
  U.S. Avg  Commercial-Distillate Oil,    !- Name
  FuelOilNo1,                             !- Resource
  2011,                                   !- Escalation Start Year
  January,                                !- Escalation Start Month
  0.9714,                                 !- Year Escalation 1
  0.9730,                                 !- Year Escalation 2
  0.9942,                                 !- Year Escalation 3
  1.0164,                                 !- Year Escalation 4
  1.0541,                                 !- Year Escalation 5
  1.0928,                                 !- Year Escalation 6
  1.1267,                                 !- Year Escalation 7
  1.1580,                                 !- Year Escalation 8
  1.1792,                                 !- Year Escalation 9
  1.1967,                                 !- Year Escalation 10
  1.2200,                                 !- Year Escalation 11
  1.2333,                                 !- Year Escalation 12
  1.2566,                                 !- Year Escalation 13
  1.2709,                                 !- Year Escalation 14
  1.2826,                                 !- Year Escalation 15
  1.2985,                                 !- Year Escalation 16
  1.3102,                                 !- Year Escalation 17
  1.3250,                                 !- Year Escalation 18
  1.3261,                                 !- Year Escalation 19
  1.3282,                                 !- Year Escalation 20
  1.3324,                                 !- Year Escalation 21
  1.3356,                                 !- Year Escalation 22
  1.3431,                                 !- Year Escalation 23
  1.3510,                                 !- Year Escalation 24
  1.3568,                                 !- Year Escalation 25
  1.3606,                                 !- Year Escalation 26
  1.3637,                                 !- Year Escalation 27
  1.3674,                                 !- Year Escalation 28
  1.3706,                                 !- Year Escalation 29
  1.3743;                                 !- Year Escalation 30

LifeCycleCost:UsePriceEscalation,
  U.S. Avg  Commercial-Residual Oil,      !- Name
  FuelOilNo2,                             !- Resource
  2011,                                   !- Escalation Start Year
  January,                                !- Escalation Start Month
  0.8469,                                 !- Year Escalation 1
  0.8257,                                 !- Year Escalation 2
  0.8681,                                 !- Year Escalation 3
  0.8988,                                 !- Year Escalation 4
  0.9289,                                 !- Year Escalation 5
  0.9604,                                 !- Year Escalation 6
  0.9897,                                 !- Year Escalation 7
  1.0075,                                 !- Year Escalation 8
  1.0314,                                 !- Year Escalation 9
  1.0554,                                 !- Year Escalation 10
  1.0861,                                 !- Year Escalation 11
  1.1278,                                 !- Year Escalation 12
  1.1497,                                 !- Year Escalation 13
  1.1620,                                 !- Year Escalation 14
  1.1743,                                 !- Year Escalation 15
  1.1852,                                 !- Year Escalation 16
  1.1948,                                 !- Year Escalation 17
  1.2037,                                 !- Year Escalation 18
  1.2071,                                 !- Year Escalation 19
  1.2119,                                 !- Year Escalation 20
  1.2139,                                 !- Year Escalation 21
  1.2194,                                 !- Year Escalation 22
  1.2276,                                 !- Year Escalation 23
  1.2365,                                 !- Year Escalation 24
  1.2420,                                 !- Year Escalation 25
  1.2461,                                 !- Year Escalation 26
  1.2509,                                 !- Year Escalation 27
  1.2550,                                 !- Year Escalation 28
  1.2591,                                 !- Year Escalation 29
  1.2638;                                 !- Year Escalation 30

LifeCycleCost:UsePriceEscalation,
  U.S. Avg  Commercial-Natural gas,       !- Name
  NaturalGas,                             !- Resource
  2011,                                   !- Escalation Start Year
  January,                                !- Escalation Start Month
  0.9823,                                 !- Year Escalation 1
  0.9557,                                 !- Year Escalation 2
  0.9279,                                 !- Year Escalation 3
  0.9257,                                 !- Year Escalation 4
  0.9346,                                 !- Year Escalation 5
  0.9412,                                 !- Year Escalation 6
  0.9512,                                 !- Year Escalation 7
  0.9645,                                 !- Year Escalation 8
  0.9856,                                 !- Year Escalation 9
  1.0067,                                 !- Year Escalation 10
  1.0222,                                 !- Year Escalation 11
  1.0410,                                 !- Year Escalation 12
  1.0610,                                 !- Year Escalation 13
  1.0787,                                 !- Year Escalation 14
  1.0942,                                 !- Year Escalation 15
  1.1098,                                 !- Year Escalation 16
  1.1220,                                 !- Year Escalation 17
  1.1308,                                 !- Year Escalation 18
  1.1386,                                 !- Year Escalation 19
  1.1486,                                 !- Year Escalation 20
  1.1619,                                 !- Year Escalation 21
  1.1763,                                 !- Year Escalation 22
  1.1918,                                 !- Year Escalation 23
  1.2118,                                 !- Year Escalation 24
  1.2284,                                 !- Year Escalation 25
  1.2439,                                 !- Year Escalation 26
  1.2605,                                 !- Year Escalation 27
  1.2772,                                 !- Year Escalation 28
  1.2938,                                 !- Year Escalation 29
  1.3115;                                 !- Year Escalation 30

LifeCycleCost:UsePriceEscalation,
  U.S. Avg  Commercial-Coal,              !- Name
  Coal,                                   !- Resource
  2011,                                   !- Escalation Start Year
  January,                                !- Escalation Start Month
  0.9970,                                 !- Year Escalation 1
  1.0089,                                 !- Year Escalation 2
  1.0089,                                 !- Year Escalation 3
  0.9941,                                 !- Year Escalation 4
  0.9941,                                 !- Year Escalation 5
  1.0000,                                 !- Year Escalation 6
  1.0030,                                 !- Year Escalation 7
  1.0059,                                 !- Year Escalation 8
  1.0089,                                 !- Year Escalation 9
  1.0119,                                 !- Year Escalation 10
  1.0148,                                 !- Year Escalation 11
  1.0178,                                 !- Year Escalation 12
  1.0208,                                 !- Year Escalation 13
  1.0267,                                 !- Year Escalation 14
  1.0297,                                 !- Year Escalation 15
  1.0356,                                 !- Year Escalation 16
  1.0415,                                 !- Year Escalation 17
  1.0534,                                 !- Year Escalation 18
  1.0564,                                 !- Year Escalation 19
  1.0593,                                 !- Year Escalation 20
  1.0653,                                 !- Year Escalation 21
  1.0712,                                 !- Year Escalation 22
  1.0742,                                 !- Year Escalation 23
  1.0801,                                 !- Year Escalation 24
  1.0831,                                 !- Year Escalation 25
  1.0831,                                 !- Year Escalation 26
  1.0861,                                 !- Year Escalation 27
  1.0890,                                 !- Year Escalation 28
  1.0920,                                 !- Year Escalation 29
  1.0950;                                 !- Year Escalation 30

Building,
  Building 1,                             !- Name
  ,                                       !- North Axis {deg}
  Suburbs,                                !- Terrain
  ,                                       !- Loads Convergence Tolerance Value {W}
  ,                                       !- Temperature Convergence Tolerance Value {deltaC}
  ,                                       !- Solar Distribution
  ,                                       !- Maximum Number of Warmup Days
  ;                                       !- Minimum Number of Warmup Days

Shading:Building:Detailed,
  Neighbor azimuth 225 distance 15.0,     !- Name
  ,                                       !- Transmittance Schedule Name
  ,                                       !- Number of Vertices
  -3.23289074224867, -53.9270592242193, 0, !- X,Y,Z Vertex 1 {m}
  -3.23289074224867, -53.9270592242193, 2.7432, !- X,Y,Z Vertex 2 {m}
  -53.9270590084379, -3.23289434164386, 2.7432, !- X,Y,Z Vertex 3 {m}
  -53.9270590084379, -3.23289434164386, 0; !- X,Y,Z Vertex 4 {m}

Shading:Building:Detailed,
  Neighbor azimuth 45 distance 15.0,      !- Name
  ,                                       !- Transmittance Schedule Name
  ,                                       !- Number of Vertices
  3.2328921820068, 53.9270591379068, 0,   !- X,Y,Z Vertex 1 {m}
  3.2328921820068, 53.9270591379068, 2.7432, !- X,Y,Z Vertex 2 {m}
  53.9270590947504, 3.23289290188576, 2.7432, !- X,Y,Z Vertex 3 {m}
  53.9270590947504, 3.23289290188576, 0;  !- X,Y,Z Vertex 4 {m}

Shading:Building:Detailed,
  Window1 shading surface,                !- Name
  trans schedule winter=0.85 summer=0.7,  !- Transmittance Schedule Name
  ,                                       !- Number of Vertices
  -42.4729222153144, 8.22167407210902, 0.3048, !- X,Y,Z Vertex 1 {m}
  -42.4729222153144, 8.22167407210902, 1.49352, !- X,Y,Z Vertex 2 {m}
  -39.3616090091968, 11.3329875689598, 1.49352, !- X,Y,Z Vertex 3 {m}
  -39.3616090091968, 11.3329875689598, 0.3048; !- X,Y,Z Vertex 4 {m}

Shading:Building:Detailed,
  Window2 shading surface,                !- Name
  trans schedule winter=0.85 summer=0.7,  !- Transmittance Schedule Name
  ,                                       !- Number of Vertices
  44.614937616392, 6.07966148296377, 0.3048, !- X,Y,Z Vertex 1 {m}
  44.614937616392, 6.07966148296377, 1.43256, !- X,Y,Z Vertex 2 {m}
  46.4381723307632, 4.25642679293107, 1.43256, !- X,Y,Z Vertex 3 {m}
  46.4381723307632, 4.25642679293107, 0.3048; !- X,Y,Z Vertex 4 {m}

Shading:Building:Detailed,
  Window3 shading surface,                !- Name
  trans schedule winter=0.85 summer=0.7,  !- Transmittance Schedule Name
  ,                                       !- Number of Vertices
  16.911198698209, -33.783400209796, 0.3048, !- X,Y,Z Vertex 1 {m}
  16.911198698209, -33.783400209796, 1.49352, !- X,Y,Z Vertex 2 {m}
  13.7998854090247, -36.8947136235803, 1.49352, !- X,Y,Z Vertex 3 {m}
  13.7998854090247, -36.8947136235803, 0.3048; !- X,Y,Z Vertex 4 {m}

Shading:Building:Detailed,
  Window4 shading surface,                !- Name
  trans schedule winter=0.85 summer=0.7,  !- Transmittance Schedule Name
  ,                                       !- Number of Vertices
  -44.6149374540757, -6.07966267410448, 0.3048, !- X,Y,Z Vertex 1 {m}
  -44.6149374540757, -6.07966267410448, 1.43256, !- X,Y,Z Vertex 2 {m}
  -46.4381722171241, -4.25642803274898, 1.43256, !- X,Y,Z Vertex 3 {m}
  -46.4381722171241, -4.25642803274898, 0.3048; !- X,Y,Z Vertex 4 {m}

Zone,
  attic - vented,                         !- Name
  ,                                       !- Direction of Relative North {deg}
  0,                                      !- X Origin {m}
  0,                                      !- Y Origin {m}
  0,                                      !- Z Origin {m}
  ,                                       !- Type
  1,                                      !- Multiplier
  ,                                       !- Ceiling Height {m}
  52.2119809419152,                       !- Volume {m3}
  ,                                       !- Floor Area {m2}
  ,                                       !- Zone Inside Convection Algorithm
  ,                                       !- Zone Outside Convection Algorithm
  Yes;                                    !- Part of Total Floor Area

Space,
  attic - vented 1,                       !- Name
  attic - vented,                         !- Zone Name
  ,                                       !- Ceiling Height {m}
  ,                                       !- Volume {m3}
  ;                                       !- Floor Area {m2}

BuildingSurface:Detailed,
  Roof1,                                  !- Name
  Roof,                                   !- Surface Type
  Roof1 construction,                     !- Construction Name
  attic - vented,                         !- Zone Name
  attic - vented 1,                       !- Space Name
  Outdoors,                               !- Outside Boundary Condition
  ,                                       !- Outside Boundary Condition Object
  SunExposed,                             !- Sun Exposure
  WindExposed,                            !- Wind Exposure
  ,                                       !- View Factor to Ground
  ,                                       !- Number of Vertices
  -38.7044698854564, 11.9896959488986, 2.7432, !- X,Y,Z Vertex 1 {m}
  -34.5048611155941, 7.79008734721964, 5.71277178003833, !- X,Y,Z Vertex 2 {m}
  -29.8095559594706, 12.4853926913778, 5.71277178003833, !- X,Y,Z Vertex 3 {m}
  -34.0091647293329, 16.6850012930568, 2.7432; !- X,Y,Z Vertex 4 {m}

BuildingSurface:Detailed,
  Roof2,                                  !- Name
  Roof,                                   !- Surface Type
  Roof2 construction,                     !- Construction Name
  attic - vented,                         !- Zone Name
  attic - vented 1,                       !- Space Name
  Outdoors,                               !- Outside Boundary Condition
  ,                                       !- Outside Boundary Condition Object
  SunExposed,                             !- Sun Exposure
  WindExposed,                            !- Wind Exposure
  ,                                       !- View Factor to Ground
  ,                                       !- Number of Vertices
  11.8395673024132, -38.8546010382942, 2.7432, !- X,Y,Z Vertex 1 {m}
  7.63995864467307, -34.654992324493, 5.71277178003833, !- X,Y,Z Vertex 2 {m}
  2.94465336319317, -39.3502975432948, 5.71277178003833, !- X,Y,Z Vertex 3 {m}
  7.14426202093317, -43.5499062570959, 2.7432; !- X,Y,Z Vertex 4 {m}

BuildingSurface:Detailed,
  Surface 1 Reversed,                     !- Name
  Floor,                                  !- Surface Type
  Floor1 construction Reversed,           !- Construction Name
  attic - vented,                         !- Zone Name
  attic - vented 1,                       !- Space Name
  Surface,                                !- Outside Boundary Condition
  Floor1,                                 !- Outside Boundary Condition Object
  NoSun,                                  !- Sun Exposure
  NoWind,                                 !- Wind Exposure
  ,                                       !- View Factor to Ground
  ,                                       !- Number of Vertices
  -6.27991564274553, -4.19156873654458e-08, 2.7432, !- X,Y,Z Vertex 1 {m}
  -4.19156873654458e-08, 6.27991564274553, 2.7432, !- X,Y,Z Vertex 2 {m}
  6.27991564274553, 4.19156873654458e-08, 2.7432, !- X,Y,Z Vertex 3 {m}
  4.19156873654458e-08, -6.27991564274553, 2.7432; !- X,Y,Z Vertex 4 {m}

BuildingSurface:Detailed,
  Wall5,                                  !- Name
  Wall,                                   !- Surface Type
  Wall5 construction,                     !- Construction Name
  attic - vented,                         !- Zone Name
  attic - vented 1,                       !- Space Name
  Outdoors,                               !- Outside Boundary Condition
  ,                                       !- Outside Boundary Condition Object
  SunExposed,                             !- Sun Exposure
  WindExposed,                            !- Wind Exposure
  ,                                       !- View Factor to Ground
  ,                                       !- Number of Vertices
  37.8750038138456, 12.8191639601882, 0.3048, !- X,Y,Z Vertex 1 {m}
  37.8750038138456, 12.8191639601882, 2.7432, !- X,Y,Z Vertex 2 {m}
  39.4645091578841, 11.2296586373682, 2.7432, !- X,Y,Z Vertex 3 {m}
  39.4645091578841, 11.2296586373682, 0.3048; !- X,Y,Z Vertex 4 {m}

BuildingSurface:Detailed,
  Wall6,                                  !- Name
  Wall,                                   !- Surface Type
  Wall6 construction,                     !- Construction Name
  attic - vented,                         !- Zone Name
  attic - vented 1,                       !- Space Name
  Outdoors,                               !- Outside Boundary Condition
  ,                                       !- Outside Boundary Condition Object
  SunExposed,                             !- Sun Exposure
  WindExposed,                            !- Wind Exposure
  ,                                       !- View Factor to Ground
  ,                                       !- Number of Vertices
  -37.8750034715963, -12.8191649713845, 0.3048, !- X,Y,Z Vertex 1 {m}
  -37.8750034715963, -12.8191649713845, 2.7432, !- X,Y,Z Vertex 2 {m}
  -39.4645088580718, -11.2296596910016, 2.7432, !- X,Y,Z Vertex 3 {m}
  -39.4645088580718, -11.2296596910016, 0.3048; !- X,Y,Z Vertex 4 {m}

ZoneInfiltration:EffectiveLeakageArea,
  infil|attic - vented 1,                 !- Name
  attic - vented 1,                       !- Zone or Space Name
  Always On Discrete,                     !- Schedule Name
  2628.8931163968,                        !- Effective Air Leakage Area {cm2}
  0.000375828108599639,                   !- Stack Coefficient
  3.63954076033127e-05;                   !- Wind Coefficient

ZoneMixing,
  whole house fan mix,                    !- Name
  attic - vented,                         !- Zone or Space Name
  Always On Continuous,                   !- Schedule Name
  Flow/Zone,                              !- Design Flow Rate Calculation Method
  0,                                      !- Design Flow Rate {m3/s}
  ,                                       !- Flow Rate per Floor Area {m3/s-m2}
  ,                                       !- Flow Rate per Person {m3/s-person}
  ,                                       !- Air Changes per Hour {1/hr}
  living space;                           !- Source Zone or Space Name

Schedule:Constant,
  Always On Continuous,                   !- Name
  Fractional 1,                           !- Schedule Type Limits Name
  1;                                      !- Hourly Value

Zone,
  living space,                           !- Name
  ,                                       !- Direction of Relative North {deg}
  0,                                      !- X Origin {m}
  0,                                      !- Y Origin {m}
  0,                                      !- Z Origin {m}
  ,                                       !- Type
  1,                                      !- Multiplier
  ,                                       !- Ceiling Height {m}
  384.656044105728,                       !- Volume {m3}
  ,                                       !- Floor Area {m2}
  ,                                       !- Zone Inside Convection Algorithm
  ,                                       !- Zone Outside Convection Algorithm
  Yes;                                    !- Part of Total Floor Area

Space,
  living space 1,                         !- Name
  living space,                           !- Zone Name
  ,                                       !- Ceiling Height {m}
  ,                                       !- Volume {m3}
  ;                                       !- Floor Area {m2}

Shading:Zone:Detailed,
  Window1 - overhangs,                    !- Name
  surface Window1,                        !- Base Surface Name
  ,                                       !- Transmittance Schedule Name
  ,                                       !- Number of Vertices
  -42.6882328259933, 8.00593238899672, 1.79832, !- X,Y,Z Vertex 1 {m}
  -39.1458673462039, 11.5482981997985, 1.79832, !- X,Y,Z Vertex 2 {m}
  -39.5769196601548, 11.9793504734702, 1.79832, !- X,Y,Z Vertex 3 {m}
  -43.1192851399442, 8.43698466266842, 1.79832; !- X,Y,Z Vertex 4 {m}

Shading:Zone:Detailed,
  Window2 - overhangs,                    !- Name
  surface Window2,                        !- Base Surface Name
  ,                                       !- Transmittance Schedule Name
  ,                                       !- Number of Vertices
  44.3991959419023, 6.29497210228257, 1.73736, !- X,Y,Z Vertex 1 {m}
  46.653482952962, 4.04068512131567, 1.73736, !- X,Y,Z Vertex 2 {m}
  47.0845352438962, 4.47173741800407, 1.73736, !- X,Y,Z Vertex 3 {m}
  44.8302482328366, 6.72602439897097, 1.73736; !- X,Y,Z Vertex 4 {m}

Shading:Zone:Detailed,
  Window3 - overhangs,                    !- Name
  surface Window3,                        !- Base Surface Name
  ,                                       !- Transmittance Schedule Name
  ,                                       !- Number of Vertices
  17.1265093146478, -33.5676585324322, 1.79832, !- X,Y,Z Vertex 1 {m}
  13.5841437402834, -37.110024248659, 1.79832, !- X,Y,Z Vertex 2 {m}
  14.015196042726, -37.541076533839, 1.79832, !- X,Y,Z Vertex 3 {m}
  17.5575616170903, -33.9987108176122, 1.79832; !- X,Y,Z Vertex 4 {m}

Shading:Zone:Detailed,
  Window4 - overhangs,                    !- Name
  surface Window4,                        !- Base Surface Name
  ,                                       !- Transmittance Schedule Name
  ,                                       !- Number of Vertices
  -44.3991957738376, -6.29497328766328, 1.73736, !- X,Y,Z Vertex 1 {m}
  -46.6534828450827, -4.04068636688198, 1.73736, !- X,Y,Z Vertex 2 {m}
  -47.0845351245086, -4.47173867507868, 1.73736, !- X,Y,Z Vertex 3 {m}
  -44.8302480532635, -6.72602559586008, 1.73736; !- X,Y,Z Vertex 4 {m}

BuildingSurface:Detailed,
  Floor1,                                 !- Name
  Ceiling,                                !- Surface Type
  Floor1 construction,                    !- Construction Name
  living space,                           !- Zone Name
  living space 1,                         !- Space Name
  Surface,                                !- Outside Boundary Condition
  Surface 1 Reversed,                     !- Outside Boundary Condition Object
  NoSun,                                  !- Sun Exposure
  NoWind,                                 !- Wind Exposure
  ,                                       !- View Factor to Ground
  ,                                       !- Number of Vertices
  4.19156873654458e-08, -6.27991564274553, 2.7432, !- X,Y,Z Vertex 1 {m}
  6.27991564274553, 4.19156873654458e-08, 2.7432, !- X,Y,Z Vertex 2 {m}
  -4.19156873654458e-08, 6.27991564274553, 2.7432, !- X,Y,Z Vertex 3 {m}
  -6.27991564274553, -4.19156873654458e-08, 2.7432; !- X,Y,Z Vertex 4 {m}

BuildingSurface:Detailed,
  FoundationWall1,                        !- Name
  Wall,                                   !- Surface Type
  FoundationWall1 construction,           !- Construction Name
  living space,                           !- Zone Name
  living space 1,                         !- Space Name
  Foundation,                             !- Outside Boundary Condition
  Foundation Kiva 1,                      !- Outside Boundary Condition Object
  NoSun,                                  !- Sun Exposure
  NoWind,                                 !- Wind Exposure
  ,                                       !- View Factor to Ground
  ,                                       !- Number of Vertices
  -26.2079811095662, 24.4861863879624, -2.1336, !- X,Y,Z Vertex 1 {m}
  -26.2079811095662, 24.4861863879624, 0.3048, !- X,Y,Z Vertex 2 {m}
  -2.87032559143086e-06, 50.6941670761782, 0.3048, !- X,Y,Z Vertex 3 {m}
  -2.87032559143086e-06, 50.6941670761782, -2.1336; !- X,Y,Z Vertex 4 {m}

BuildingSurface:Detailed,
  inferred conditioned ceiling,           !- Name
  Ceiling,                                !- Surface Type
  AdiabaticFloorConstruction,             !- Construction Name
  living space,                           !- Zone Name
  living space 1,                         !- Space Name
  Adiabatic,                              !- Outside Boundary Condition
  ,                                       !- Outside Boundary Condition Object
  NoSun,                                  !- Sun Exposure
  NoWind,                                 !- Wind Exposure
  ,                                       !- View Factor to Ground
  ,                                       !- Number of Vertices
  4.19156873654458e-08, -6.27991564274553, 0.3048, !- X,Y,Z Vertex 1 {m}
  6.27991564274553, 4.19156873654458e-08, 0.3048, !- X,Y,Z Vertex 2 {m}
  -4.19156873654458e-08, 6.27991564274553, 0.3048, !- X,Y,Z Vertex 3 {m}
  -6.27991564274553, -4.19156873654458e-08, 0.3048; !- X,Y,Z Vertex 4 {m}

BuildingSurface:Detailed,
  inferred conditioned floor,             !- Name
  Floor,                                  !- Surface Type
  AdiabaticFloorConstruction,             !- Construction Name
  living space,                           !- Zone Name
  living space 1,                         !- Space Name
  Adiabatic,                              !- Outside Boundary Condition
  ,                                       !- Outside Boundary Condition Object
  NoSun,                                  !- Sun Exposure
  NoWind,                                 !- Wind Exposure
  ,                                       !- View Factor to Ground
  ,                                       !- Number of Vertices
  -6.27991564274553, -4.19156873654458e-08, 0.3048, !- X,Y,Z Vertex 1 {m}
  -4.19156873654458e-08, 6.27991564274553, 0.3048, !- X,Y,Z Vertex 2 {m}