
OS:Version,
  {23c30b3f-f78b-4caa-bb1b-bc5dbcbefe97}, !- Handle
  3.6.1;                                  !- Version Identifier

OS:WeatherFile,
  {6119d356-b467-4074-b0be-682dfcffb958}, !- Handle
  Fort Lauderdale,                        !- City
  FL,                                     !- State Province Region
  USA,                                    !- Country
  TMY3,                                   !- Data Source
  722039,                                 !- WMO Number
  26.2,                                   !- Latitude {deg}
  -80.17,                                 !- Longitude {deg}
  -5,                                     !- Time Zone {hr}
  4,                                      !- Elevation {m}
  C:/Users/ylou2/Desktop/resstock-3.1.0/national_baseline/run11/run/../../../weather/G1200110.epw, !- Url
  E8FBE4DD,                               !- Checksum
  ,                                       !- Start Date Actual Year
  Sunday;                                 !- Start Day of Week

OS:YearDescription,
  {efb3912c-a06c-4213-a0d9-4fcca316e290}, !- Handle
  2007,                                   !- Calendar Year
  ,                                       !- Day of Week for Start Day
  ;                                       !- Is Leap Year

OS:Site,
  {6611027e-6890-48cf-8ba5-cd8630699302}, !- Handle
  Fort Lauderdale_FL_USA,                 !- Name
  26.2,                                   !- Latitude {deg}
  -80.17,                                 !- Longitude {deg}
  -5,                                     !- Time Zone {hr}
  4,                                      !- Elevation {m}
  Suburbs;                                !- Terrain

OS:RunPeriodControl:DaylightSavingTime,
  {8a4b32fb-9dfe-4d6c-9886-5859b155359a}, !- Handle
  Mar 12,                                 !- Start Date
  Nov 5;                                  !- End Date

OS:Site:GroundTemperature:Shallow,
  {53aeb182-42e6-40b7-a53f-da112d3f3798}, !- Handle
  22.456235609299,                        !- January Surface Ground Temperature {C}
  21.7234235405762,                       !- February Surface Ground Temperature {C}
  21.6647373220925,                       !- March Surface Ground Temperature {C}
  22.0124940927604,                       !- April Surface Ground Temperature {C}
  23.4085437416858,                       !- May Surface Ground Temperature {C}
  24.798089999111,                        !- June Surface Ground Temperature {C}
  26.0027523410427,                       !- July Surface Ground Temperature {C}
  26.76587630659,                         !- August Surface Ground Temperature {C}
  26.8307078790052,                       !- September Surface Ground Temperature {C}
  26.2100347966655,                       !- October Surface Ground Temperature {C}
  25.0360920517281,                       !- November Surface Ground Temperature {C}
  23.6891714137593;                       !- December Surface Ground Temperature {C}

OS:Site:GroundTemperature:Deep,
  {9c1a541d-7bdc-459c-bfee-7eab63d324b3}, !- Handle
  24.071404109589,                        !- January Deep Ground Temperature {C}
  24.071404109589,                        !- February Deep Ground Temperature {C}
  24.071404109589,                        !- March Deep Ground Temperature {C}
  24.071404109589,                        !- April Deep Ground Temperature {C}
  24.071404109589,                        !- May Deep Ground Temperature {C}
  24.071404109589,                        !- June Deep Ground Temperature {C}
  24.071404109589,                        !- July Deep Ground Temperature {C}
  24.071404109589,                        !- August Deep Ground Temperature {C}
  24.071404109589,                        !- September Deep Ground Temperature {C}
  24.071404109589,                        !- October Deep Ground Temperature {C}
  24.071404109589,                        !- November Deep Ground Temperature {C}
  24.071404109589;                        !- December Deep Ground Temperature {C}

OS:SimulationControl,
  {465703ec-af3c-4b90-bb0f-891d5ae24f89}, !- Handle
  ,                                       !- Do Zone Sizing Calculation
  ,                                       !- Do System Sizing Calculation
  ,                                       !- Do Plant Sizing Calculation
  No;                                     !- Run Simulation for Sizing Periods

OS:Timestep,
  {81aca0c6-f09c-4c39-9bba-144e9a26b98f}, !- Handle
  1;                                      !- Number of Timesteps per Hour

OS:ShadowCalculation,
  {2e984a47-0069-4b6c-8534-dc94273a5049}, !- Handle
  PolygonClipping,                        !- Shading Calculation Method
  ,                                       !- Shading Calculation Update Frequency Method
  20,                                     !- Shading Calculation Update Frequency
  200,                                    !- Maximum Figures in Shadow Overlap Calculations
  ,                                       !- Polygon Clipping Algorithm
  512,                                    !- Pixel Counting Resolution
  DetailedSkyDiffuseModeling,             !- Sky Diffuse Modeling Algorithm
  No,                                     !- Output External Shading Calculation Results
  No,                                     !- Disable Self-Shading Within Shading Zone Groups
  No;                                     !- Disable Self-Shading From Shading Zone Groups to Other Zones

OS:SurfaceConvectionAlgorithm:Outside,
  {f33f2fb9-0c67-4286-8094-a5789451aacd}, !- Handle
  DOE-2;                                  !- Algorithm

OS:SurfaceConvectionAlgorithm:Inside,
  {4e1b6091-5a4c-4ef6-b053-a4fb35cc5382}, !- Handle
  TARP;                                   !- Algorithm

OS:ZoneCapacitanceMultiplier:ResearchSpecial,
  {0d265329-c740-495e-940b-bfcdb4e5333a}, !- Handle
  1,                                      !- Temperature Capacity Multiplier
  15,                                     !- Humidity Capacity Multiplier
  ;                                       !- Carbon Dioxide Capacity Multiplier

OS:ConvergenceLimits,
  {b066e415-4d6f-4b9f-ae82-acb2ef48536f}, !- Handle
  0;                                      !- Minimum System Timestep {minutes}

OS:RunPeriod,
  {e224bbf3-271a-49a4-8d48-027b3d3fc523}, !- Handle
  Run Period 1,                           !- Name
  1,                                      !- Begin Month
  1,                                      !- Begin Day of Month
  12,                                     !- End Month
  31,                                     !- End Day of Month
  ,                                       !- Use Weather File Holidays and Special Days
  ,                                       !- Use Weather File Daylight Saving Period
  ,                                       !- Apply Weekend Holiday Rule
  ,                                       !- Use Weather File Rain Indicators
  ,                                       !- Use Weather File Snow Indicators
  ;                                       !- Number of Times Runperiod to be Repeated

OS:PerformancePrecisionTradeoffs,
  {00bcd019-f145-4cc1-b2af-1537f07a8980}, !- Handle
  ,                                       !- Use Coil Direct Solutions
  CarrollMRT;                             !- Zone Radiant Exchange Algorithm

OS:ThermalZone,
  {939cacf3-e284-474c-b892-96f045556012}, !- Handle
  living space,                           !- Name
  ,                                       !- Multiplier
  ,                                       !- Ceiling Height {m}
  278.184700919808,                       !- Volume {m3}
  ,                                       !- Floor Area {m2}
  ,                                       !- Zone Inside Convection Algorithm
  ,                                       !- Zone Outside Convection Algorithm
  ,                                       !- Zone Conditioning Equipment List Name
  {3e93c6ef-7646-4491-a9de-a1c0ca8fc8a6}, !- Zone Air Inlet Port List
  {0d93ba89-f5b7-4400-bb17-666ad32e1cca}, !- Zone Air Exhaust Port List
  {fa3b2e93-313d-48ec-ab7b-79545d942a06}, !- Zone Air Node Name
  {83cb3702-f861-4a71-b672-472809eaccd0}, !- Zone Return Air Port List
  ,                                       !- Primary Daylighting Control Name
  ,                                       !- Fraction of Zone Controlled by Primary Daylighting Control
  ,                                       !- Secondary Daylighting Control Name
  ,                                       !- Fraction of Zone Controlled by Secondary Daylighting Control
  ,                                       !- Illuminance Map Name
  ,                                       !- Group Rendering Name
  {d130d0fd-4a93-4a86-8faa-d1b8d8c2a975}, !- Thermostat Name
  No;                                     !- Use Ideal Air Loads

OS:Node,
  {db034539-98f0-426c-83f5-afc995ba8983}, !- Handle
  Node 1,                                 !- Name
  {fa3b2e93-313d-48ec-ab7b-79545d942a06}, !- Inlet Port
  ;                                       !- Outlet Port

OS:Connection,
  {fa3b2e93-313d-48ec-ab7b-79545d942a06}, !- Handle
  {939cacf3-e284-474c-b892-96f045556012}, !- Source Object
  11,                                     !- Outlet Port
  {db034539-98f0-426c-83f5-afc995ba8983}, !- Target Object
  2;                                      !- Inlet Port

OS:PortList,
  {3e93c6ef-7646-4491-a9de-a1c0ca8fc8a6}, !- Handle
  {939cacf3-e284-474c-b892-96f045556012}, !- HVAC Component
  {8225f890-619b-44a6-9cd1-0061cc0bead4}; !- Port 1

OS:PortList,
  {0d93ba89-f5b7-4400-bb17-666ad32e1cca}, !- Handle
  {939cacf3-e284-474c-b892-96f045556012}; !- HVAC Component

OS:PortList,
  {83cb3702-f861-4a71-b672-472809eaccd0}, !- Handle
  {939cacf3-e284-474c-b892-96f045556012}, !- HVAC Component
  {3f7ef795-8ee3-4006-aef6-28d6b4a19b5e}; !- Port 1

OS:Sizing:Zone,
  {94a8089b-4918-4652-bc38-e00f39e4e157}, !- Handle
  {939cacf3-e284-474c-b892-96f045556012}, !- Zone or ZoneList Name
  SupplyAirTemperature,                   !- Zone Cooling Design Supply Air Temperature Input Method
  14,                                     !- Zone Cooling Design Supply Air Temperature {C}
  11.11,                                  !- Zone Cooling Design Supply Air Temperature Difference {deltaC}
  SupplyAirTemperature,                   !- Zone Heating Design Supply Air Temperature Input Method
  40,                                     !- Zone Heating Design Supply Air Temperature {C}
  11.11,                                  !- Zone Heating Design Supply Air Temperature Difference {deltaC}
  0.0085,                                 !- Zone Cooling Design Supply Air Humidity Ratio {kg-H2O/kg-air}
  0.008,                                  !- Zone Heating Design Supply Air Humidity Ratio {kg-H2O/kg-air}
  ,                                       !- Zone Heating Sizing Factor
  ,                                       !- Zone Cooling Sizing Factor
  DesignDay,                              !- Cooling Design Air Flow Method
  ,                                       !- Cooling Design Air Flow Rate {m3/s}
  ,                                       !- Cooling Minimum Air Flow per Zone Floor Area {m3/s-m2}
  ,                                       !- Cooling Minimum Air Flow {m3/s}
  ,                                       !- Cooling Minimum Air Flow Fraction
  DesignDay,                              !- Heating Design Air Flow Method
  ,                                       !- Heating Design Air Flow Rate {m3/s}
  ,                                       !- Heating Maximum Air Flow per Zone Floor Area {m3/s-m2}
  ,                                       !- Heating Maximum Air Flow {m3/s}
  ,                                       !- Heating Maximum Air Flow Fraction
  No,                                     !- Account for Dedicated Outdoor Air System
  NeutralSupplyAir,                       !- Dedicated Outdoor Air System Control Strategy
  autosize,                               !- Dedicated Outdoor Air Low Setpoint Temperature for Design {C}
  autosize,                               !- Dedicated Outdoor Air High Setpoint Temperature for Design {C}
  Sensible Load Only No Latent Load,      !- Zone Load Sizing Method
  HumidityRatioDifference,                !- Zone Latent Cooling Design Supply Air Humidity Ratio Input Method
  ,                                       !- Zone Dehumidification Design Supply Air Humidity Ratio {kgWater/kgDryAir}
  0.005,                                  !- Zone Cooling Design Supply Air Humidity Ratio Difference {kgWater/kgDryAir}
  HumidityRatioDifference,                !- Zone Latent Heating Design Supply Air Humidity Ratio Input Method
  ,                                       !- Zone Humidification Design Supply Air Humidity Ratio {kgWater/kgDryAir}
  0.005;                                  !- Zone Humidification Design Supply Air Humidity Ratio Difference {kgWater/kgDryAir}

OS:ZoneHVAC:EquipmentList,
  {61ff9c0e-7260-44ad-80f2-9d9cfb2391cc}, !- Handle
  Zone HVAC Equipment List 1,             !- Name
  {939cacf3-e284-474c-b892-96f045556012}, !- Thermal Zone
  ,                                       !- Load Distribution Scheme
  {43e4e282-990e-498f-ba34-20767673a829}, !- Zone Equipment 1
  1,                                      !- Zone Equipment Cooling Sequence 1
  1,                                      !- Zone Equipment Heating or No-Load Sequence 1
  {2d62aa8d-7a0c-4510-b79d-658f0bd6255a}, !- Zone Equipment Sequential Cooling Fraction Schedule Name 1
  {8257af9d-f5d8-48c0-96d6-59ce77b8ed49}; !- Zone Equipment Sequential Heating Fraction Schedule Name 1

OS:Space,
  {d76925ff-42b5-4c7b-b274-86e57b5e3386}, !- Handle
  living space 1,                         !- Name
  ,                                       !- Space Type Name
  ,                                       !- Default Construction Set Name
  ,                                       !- Default Schedule Set Name
  ,                                       !- Direction of Relative North {deg}
  ,                                       !- X Origin {m}
  ,                                       !- Y Origin {m}
  ,                                       !- Z Origin {m}
  ,                                       !- Building Story Name
  {939cacf3-e284-474c-b892-96f045556012}; !- Thermal Zone Name

OS:Schedule:Ruleset,
  {26eb3d64-af5d-4a96-a7be-7be8572691d5}, !- Handle
  heating setpoint,                       !- Name
  {d134ed8c-047e-484b-8f29-7583039be9db}, !- Schedule Type Limits Name
  {b4e3b1cd-8cea-42bd-8416-46223e3685d5}; !- Default Day Schedule Name

OS:Schedule:Day,
  {b4e3b1cd-8cea-42bd-8416-46223e3685d5}, !- Handle
  heating setpoint default day,           !- Name
  {d134ed8c-047e-484b-8f29-7583039be9db}, !- Schedule Type Limits Name
  ,                                       !- Interpolate to Timestep
  24,                                     !- Hour 1
  0,                                      !- Minute 1
  0;                                      !- Value Until Time 1

OS:Schedule:Rule,
  {34ac4eb5-fcd0-490c-9f57-ffe19206fa19}, !- Handle
  heating setpoint allday ruleset1,       !- Name
  {26eb3d64-af5d-4a96-a7be-7be8572691d5}, !- Schedule Ruleset Name
  0,                                      !- Rule Order
  {836c3a0c-0206-4282-a25f-1cdf6e0b801a}, !- Day Schedule Name
  Yes,                                    !- Apply Sunday
  Yes,                                    !- Apply Monday
  Yes,                                    !- Apply Tuesday
  Yes,                                    !- Apply Wednesday
  Yes,                                    !- Apply Thursday
  Yes,                                    !- Apply Friday
  Yes,                                    !- Apply Saturday
  DateRange,                              !- Date Specification Type
  1,                                      !- Start Month
  1,                                      !- Start Day
  12,                                     !- End Month
  31;                                     !- End Day

OS:Schedule:Day,
  {836c3a0c-0206-4282-a25f-1cdf6e0b801a}, !- Handle
  heating setpoint allday1,               !- Name
  {d134ed8c-047e-484b-8f29-7583039be9db}, !- Schedule Type Limits Name
  ,                                       !- Interpolate to Timestep
  3,                                      !- Hour 1
  0,                                      !- Minute 1
  21.1111111111111,                       !- Value Until Time 1
  12,                                     !- Hour 2
  0,                                      !- Minute 2
  19.4444444444444,                       !- Value Until Time 2
  24,                                     !- Hour 3
  0,                                      !- Minute 3
  21.1111111111111;                       !- Value Until Time 3

OS:Schedule:Ruleset,
  {a962c6c8-d6a9-4ac8-97fb-4a1e4168ab70}, !- Handle
  cooling setpoint,                       !- Name
  {d134ed8c-047e-484b-8f29-7583039be9db}, !- Schedule Type Limits Name
  {b5dd7173-14db-4a24-9645-765b99f5dff0}; !- Default Day Schedule Name

OS:Schedule:Day,
  {b5dd7173-14db-4a24-9645-765b99f5dff0}, !- Handle
  cooling setpoint default day,           !- Name
  {d134ed8c-047e-484b-8f29-7583039be9db}, !- Schedule Type Limits Name
  ,                                       !- Interpolate to Timestep
  24,                                     !- Hour 1
  0,                                      !- Minute 1
  0;                                      !- Value Until Time 1

OS:Schedule:Rule,
  {191cfd64-5820-4d6d-83a6-f9b5a85cfdb2}, !- Handle
  cooling setpoint allday ruleset1,       !- Name
  {a962c6c8-d6a9-4ac8-97fb-4a1e4168ab70}, !- Schedule Ruleset Name
  0,                                      !- Rule Order
  {d048d2de-91e4-4434-b701-f02248f86ceb}, !- Day Schedule Name
  Yes,                                    !- Apply Sunday
  Yes,                                    !- Apply Monday
  Yes,                                    !- Apply Tuesday
  Yes,                                    !- Apply Wednesday
  Yes,                                    !- Apply Thursday
  Yes,                                    !- Apply Friday
  Yes,                                    !- Apply Saturday
  DateRange,                              !- Date Specification Type
  1,                                      !- Start Month
  1,                                      !- Start Day
  12,                                     !- End Month
  31;                                     !- End Day

OS:Schedule:Day,
  {d048d2de-91e4-4434-b701-f02248f86ceb}, !- Handle
  cooling setpoint allday1,               !- Name
  {d134ed8c-047e-484b-8f29-7583039be9db}, !- Schedule Type Limits Name
  ,                                       !- Interpolate to Timestep
  3,                                      !- Hour 1
  0,                                      !- Minute 1
  25.5555555555556,                       !- Value Until Time 1
  12,                                     !- Hour 2
  0,                                      !- Minute 2
  24.4444444444444,                       !- Value Until Time 2
  24,                                     !- Hour 3
  0,                                      !- Minute 3
  25.5555555555556;                       !- Value Until Time 3

OS:ThermostatSetpoint:DualSetpoint,
  {d130d0fd-4a93-4a86-8faa-d1b8d8c2a975}, !- Handle
  living space temperature setpoint,      !- Name
  {26eb3d64-af5d-4a96-a7be-7be8572691d5}, !- Heating Setpoint Temperature Schedule Name
  {a962c6c8-d6a9-4ac8-97fb-4a1e4168ab70}; !- Cooling Setpoint Temperature Schedule Name

OS:ScheduleTypeLimits,
  {d134ed8c-047e-484b-8f29-7583039be9db}, !- Handle
  Temperature,                            !- Name
  ,                                       !- Lower Limit Value
  ,                                       !- Upper Limit Value
  Continuous,                             !- Numeric Type
  Temperature;                            !- Unit Type

OS:Surface,
  {b68a9708-686d-411d-a163-7ed092789e34}, !- Handle
  Roof1,                                  !- Name
  RoofCeiling,                            !- Surface Type
  {b3ea2aad-b7b0-4b58-8c17-82c4f9151a89}, !- Construction Name
  {8ff02103-b1e8-4b98-9203-604a8774719c}, !- Space Name
  Outdoors,                               !- Outside Boundary Condition
  ,                                       !- Outside Boundary Condition Object
  SunExposed,                             !- Sun Exposure
  WindExposed,                            !- Wind Exposure
  ,                                       !- View Factor to Ground
  ,                                       !- Number of Vertices
  5.64703234690494, -14.1448957814012, 2.4384, !- X,Y,Z Vertex 1 {m}
  0.59617356413861, -9.09403693121025, 6.00989651994791, !- X,Y,Z Vertex 2 {m}
  -5.05085830275305, -14.741068722719, 6.00989651994791, !- X,Y,Z Vertex 3 {m}
  4.80013319759109e-07, -19.7919275729099, 2.4384; !- X,Y,Z Vertex 4 {m}

OS:AdditionalProperties,
  {b8725589-064c-4d11-9680-97559acbb607}, !- Handle
  {b68a9708-686d-411d-a163-7ed092789e34}, !- Object Name
  Length,                                 !- Feature Name 1
  Double,                                 !- Feature Data Type 1
  26.201145013147801,                     !- Feature Value 1
  Width,                                  !- Feature Name 2
  Double,                                 !- Feature Data Type 2
  26.201145013147805,                     !- Feature Value 2
  Azimuth,                                !- Feature Name 3
  Integer,                                !- Feature Data Type 3
  135,                                    !- Feature Value 3
  Tilt,                                   !- Feature Name 4
  Double,                                 !- Feature Data Type 4
  0.5,                                    !- Feature Value 4
  SurfaceType,                            !- Feature Name 5
  String,                                 !- Feature Data Type 5
  Roof;                                   !- Feature Value 5

OS:ThermalZone,
  {b4cc0a29-400a-49eb-a0d8-d8a42a918bea}, !- Handle
  attic - vented,                         !- Name
  ,                                       !- Multiplier
  ,                                       !- Ceiling Height {m}
  90.8251629401347,                       !- Volume {m3}
  ,                                       !- Floor Area {m2}
  ,                                       !- Zone Inside Convection Algorithm
  ,                                       !- Zone Outside Convection Algorithm
  ,                                       !- Zone Conditioning Equipment List Name
  {c6d13879-0226-4740-8565-5b4887941946}, !- Zone Air Inlet Port List
  {402dd4cf-fdf5-4d51-a18c-9b7e818d8439}, !- Zone Air Exhaust Port List
  {6b759121-d7eb-4d28-90a5-def3fbd2e716}, !- Zone Air Node Name
  {ae42f489-219f-49f7-9df4-7e7e4ae1e233}, !- Zone Return Air Port List
  ,                                       !- Primary Daylighting Control Name
  ,                                       !- Fraction of Zone Controlled by Primary Daylighting Control
  ,                                       !- Secondary Daylighting Control Name
  ,                                       !- Fraction of Zone Controlled by Secondary Daylighting Control
  ,                                       !- Illuminance Map Name
  ,                                       !- Group Rendering Name
  ,                                       !- Thermostat Name
  No;                                     !- Use Ideal Air Loads

OS:Node,
  {54bc9597-6e06-4665-8944-6f4a7b147ce8}, !- Handle
  Node 2,                                 !- Name
  {6b759121-d7eb-4d28-90a5-def3fbd2e716}, !- Inlet Port
  ;                                       !- Outlet Port

OS:Connection,
  {6b759121-d7eb-4d28-90a5-def3fbd2e716}, !- Handle
  {b4cc0a29-400a-49eb-a0d8-d8a42a918bea}, !- Source Object
  11,                                     !- Outlet Port
  {54bc9597-6e06-4665-8944-6f4a7b147ce8}, !- Target Object
  2;                                      !- Inlet Port

OS:PortList,
  {c6d13879-0226-4740-8565-5b4887941946}, !- Handle
  {b4cc0a29-400a-49eb-a0d8-d8a42a918bea}; !- HVAC Component

OS:PortList,
  {402dd4cf-fdf5-4d51-a18c-9b7e818d8439}, !- Handle
  {b4cc0a29-400a-49eb-a0d8-d8a42a918bea}; !- HVAC Component

OS:PortList,
  {ae42f489-219f-49f7-9df4-7e7e4ae1e233}, !- Handle
  {b4cc0a29-400a-49eb-a0d8-d8a42a918bea}; !- HVAC Component

OS:Sizing:Zone,
  {335c988d-79e1-47e6-aded-7fb65590ab37}, !- Handle
  {b4cc0a29-400a-49eb-a0d8-d8a42a918bea}, !- Zone or ZoneList Name
  SupplyAirTemperature,                   !- Zone Cooling Design Supply Air Temperature Input Method
  14,                                     !- Zone Cooling Design Supply Air Temperature {C}
  11.11,                                  !- Zone Cooling Design Supply Air Temperature Difference {deltaC}
  SupplyAirTemperature,                   !- Zone Heating Design Supply Air Temperature Input Method
  40,                                     !- Zone Heating Design Supply Air Temperature {C}
  11.11,                                  !- Zone Heating Design Supply Air Temperature Difference {deltaC}
  0.0085,                                 !- Zone Cooling Design Supply Air Humidity Ratio {kg-H2O/kg-air}
  0.008,                                  !- Zone Heating Design Supply Air Humidity Ratio {kg-H2O/kg-air}
  ,                                       !- Zone Heating Sizing Factor
  ,                                       !- Zone Cooling Sizing Factor
  DesignDay,                              !- Cooling Design Air Flow Method
  ,                                       !- Cooling Design Air Flow Rate {m3/s}
  ,                                       !- Cooling Minimum Air Flow per Zone Floor Area {m3/s-m2}
  ,                                       !- Cooling Minimum Air Flow {m3/s}
  ,                                       !- Cooling Minimum Air Flow Fraction
  DesignDay,                              !- Heating Design Air Flow Method
  ,                                       !- Heating Design Air Flow Rate {m3/s}
  ,                                       !- Heating Maximum Air Flow per Zone Floor Area {m3/s-m2}
  ,                                       !- Heating Maximum Air Flow {m3/s}
  ,                                       !- Heating Maximum Air Flow Fraction
  No,                                     !- Account for Dedicated Outdoor Air System
  NeutralSupplyAir,                       !- Dedicated Outdoor Air System Control Strategy
  autosize,                               !- Dedicated Outdoor Air Low Setpoint Temperature for Design {C}
  autosize,                               !- Dedicated Outdoor Air High Setpoint Temperature for Design {C}
  Sensible Load Only No Latent Load,      !- Zone Load Sizing Method
  HumidityRatioDifference,                !- Zone Latent Cooling Design Supply Air Humidity Ratio Input Method
  ,                                       !- Zone Dehumidification Design Supply Air Humidity Ratio {kgWater/kgDryAir}
  0.005,                                  !- Zone Cooling Design Supply Air Humidity Ratio Difference {kgWater/kgDryAir}
  HumidityRatioDifference,                !- Zone Latent Heating Design Supply Air Humidity Ratio Input Method
  ,                                       !- Zone Humidification Design Supply Air Humidity Ratio {kgWater/kgDryAir}
  0.005;                                  !- Zone Humidification Design Supply Air Humidity Ratio Difference {kgWater/kgDryAir}

OS:ZoneHVAC:EquipmentList,
  {b65ff77e-d3f1-4bae-9924-7d19d125ce5c}, !- Handle
  Zone HVAC Equipment List 2,             !- Name
  {b4cc0a29-400a-49eb-a0d8-d8a42a918bea}; !- Thermal Zone

OS:Space,
  {8ff02103-b1e8-4b98-9203-604a8774719c}, !- Handle
  attic - vented 1,                       !- Name
  ,                                       !- Space Type Name
  ,                                       !- Default Construction Set Name
  ,                                       !- Default Schedule Set Name
  ,                                       !- Direction of Relative North {deg}
  ,                                       !- X Origin {m}
  ,                                       !- Y Origin {m}
  ,                                       !- Z Origin {m}
  ,                                       !- Building Story Name
  {b4cc0a29-400a-49eb-a0d8-d8a42a918bea}; !- Thermal Zone Name

OS:Material,
  {7ef686d6-34cc-4eae-a919-13fc7fcee5e4}, !- Handle
  asphalt or fiberglass shingles,         !- Name
  Rough,                                  !- Roughness
  0.00635,                                !- Thickness {m}
  0.162714,                               !- Conductivity {W/m-K}
  1121.4,                                 !- Density {kg/m3}
  1465.45,                                !- Specific Heat {J/kg-K}
  0.9,                                    !- Thermal Absorptance
  0.85,                                   !- Solar Absorptance
  0.85;                                   !- Visible Absorptance

OS:Material,
  {5d91a9d9-7151-42fb-ba6a-1b00419f21fe}, !- Handle
  roof rigid ins,                         !- Name
  Rough,                                  !- Roughness
  0.0028163194147757,                     !- Thickness {m}
  0.029427,                               !- Conductivity {W/m-K}
  32.04,                                  !- Density {kg/m3}
  1214.23,                                !- Specific Heat {J/kg-K}
  0.9,                                    !- Thermal Absorptance
  0.7,                                    !- Solar Absorptance
  0.7;                                    !- Visible Absorptance

OS:Material,
  {7f4277b9-8dab-413c-bf00-44ce4b26f14d}, !- Handle
  osb sheathing 0.5 in.,                  !- Name
  Rough,                                  !- Roughness
  0.0127,                                 !- Thickness {m}
  0.1154577,                              !- Conductivity {W/m-K}
  512.64,                                 !- Density {kg/m3}