
OS:Version,
  {bea56678-8f5a-42fa-a844-6f3734b78a35}, !- Handle
  3.6.1;                                  !- Version Identifier

OS:WeatherFile,
  {8f5695d6-9903-4989-a61a-9d0984019bd4}, !- Handle
  Melbourne Regional Ap,                  !- City
  FL,                                     !- State Province Region
  USA,                                    !- Country
  TMY3,                                   !- Data Source
  722040,                                 !- WMO Number
  28.12,                                  !- Latitude {deg}
  -80.65,                                 !- Longitude {deg}
  -5,                                     !- Time Zone {hr}
  11,                                     !- Elevation {m}
  C:/Users/ylou2/Desktop/resstock-3.1.0/national_baseline/run9/run/../../../weather/G1200090.epw, !- Url
  0EEA1C15,                               !- Checksum
  ,                                       !- Start Date Actual Year
  Sunday;                                 !- Start Day of Week

OS:YearDescription,
  {fcbabc74-6d59-45d3-9aa3-0828dab7d4ab}, !- Handle
  2007,                                   !- Calendar Year
  ,                                       !- Day of Week for Start Day
  ;                                       !- Is Leap Year

OS:Site,
  {cc6fbb25-3778-4c4a-bf9f-918d3c82359d}, !- Handle
  Melbourne Regional Ap_FL_USA,           !- Name
  28.12,                                  !- Latitude {deg}
  -80.65,                                 !- Longitude {deg}
  -5,                                     !- Time Zone {hr}
  11,                                     !- Elevation {m}
  Suburbs;                                !- Terrain

OS:RunPeriodControl:DaylightSavingTime,
  {5a642d31-4a70-4121-82db-a4f876521fba}, !- Handle
  Mar 12,                                 !- Start Date
  Nov 5;                                  !- End Date

OS:Site:GroundTemperature:Shallow,
  {5ee9ab7c-4f58-4db3-aa41-86b0016fc56b}, !- Handle
  21.0487638878903,                       !- January Surface Ground Temperature {C}
  20.3202704777108,                       !- February Surface Ground Temperature {C}
  20.2619301128908,                       !- March Surface Ground Temperature {C}
  20.607637459412,                        !- April Surface Ground Temperature {C}
  21.9954598124173,                       !- May Surface Ground Temperature {C}
  23.3768171001571,                       !- June Surface Ground Temperature {C}
  24.5743800430247,                       !- July Surface Ground Temperature {C}
  25.3330067138711,                       !- August Surface Ground Temperature {C}
  25.3974562163997,                       !- September Surface Ground Temperature {C}
  24.7804409274071,                       !- October Surface Ground Temperature {C}
  23.6134165426894,                       !- November Surface Ground Temperature {C}
  22.2744336701703;                       !- December Surface Ground Temperature {C}

OS:Site:GroundTemperature:Deep,
  {941c8499-ca2c-4a67-83a1-c065f800cc40}, !- Handle
  22.6533333333333,                       !- January Deep Ground Temperature {C}
  22.6533333333333,                       !- February Deep Ground Temperature {C}
  22.6533333333333,                       !- March Deep Ground Temperature {C}
  22.6533333333333,                       !- April Deep Ground Temperature {C}
  22.6533333333333,                       !- May Deep Ground Temperature {C}
  22.6533333333333,                       !- June Deep Ground Temperature {C}
  22.6533333333333,                       !- July Deep Ground Temperature {C}
  22.6533333333333,                       !- August Deep Ground Temperature {C}
  22.6533333333333,                       !- September Deep Ground Temperature {C}
  22.6533333333333,                       !- October Deep Ground Temperature {C}
  22.6533333333333,                       !- November Deep Ground Temperature {C}
  22.6533333333333;                       !- December Deep Ground Temperature {C}

OS:SimulationControl,
  {a301ab05-870e-4b4a-bf5e-6cce5544fe6d}, !- Handle
  ,                                       !- Do Zone Sizing Calculation
  ,                                       !- Do System Sizing Calculation
  ,                                       !- Do Plant Sizing Calculation
  No;                                     !- Run Simulation for Sizing Periods

OS:Timestep,
  {44344377-4090-400b-9ca5-f132e447d723}, !- Handle
  1;                                      !- Number of Timesteps per Hour

OS:ShadowCalculation,
  {f8d1c12a-b5a4-437c-8669-0332a452da4f}, !- Handle
  PolygonClipping,                        !- Shading Calculation Method
  ,                                       !- Shading Calculation Update Frequency Method
  20,                                     !- Shading Calculation Update Frequency
  200,                                    !- Maximum Figures in Shadow Overlap Calculations
  ,                                       !- Polygon Clipping Algorithm
  512,                                    !- Pixel Counting Resolution
  DetailedSkyDiffuseModeling,             !- Sky Diffuse Modeling Algorithm
  No,                                     !- Output External Shading Calculation Results
  No,                                     !- Disable Self-Shading Within Shading Zone Groups
  No;                                     !- Disable Self-Shading From Shading Zone Groups to Other Zones

OS:SurfaceConvectionAlgorithm:Outside,
  {6bcb73ab-4a0b-4d87-ac7f-43fdd516293b}, !- Handle
  DOE-2;                                  !- Algorithm

OS:SurfaceConvectionAlgorithm:Inside,
  {ffc877ba-c604-4d47-a08c-ae1b78b40270}, !- Handle
  TARP;                                   !- Algorithm

OS:ZoneCapacitanceMultiplier:ResearchSpecial,
  {46838a20-4a95-4171-8655-68d9d0d2ca7a}, !- Handle
  1,                                      !- Temperature Capacity Multiplier
  15,                                     !- Humidity Capacity Multiplier
  ;                                       !- Carbon Dioxide Capacity Multiplier

OS:ConvergenceLimits,
  {ca7df96e-33b5-4d71-a399-0f7c7174d3a6}, !- Handle
  0;                                      !- Minimum System Timestep {minutes}

OS:RunPeriod,
  {4e25d469-61c4-49c4-b6dd-2348a4ab71c7}, !- Handle
  Run Period 1,                           !- Name
  1,                                      !- Begin Month
  1,                                      !- Begin Day of Month
  12,                                     !- End Month
  31,                                     !- End Day of Month
  ,                                       !- Use Weather File Holidays and Special Days
  ,                                       !- Use Weather File Daylight Saving Period
  ,                                       !- Apply Weekend Holiday Rule
  ,                                       !- Use Weather File Rain Indicators
  ,                                       !- Use Weather File Snow Indicators
  ;                                       !- Number of Times Runperiod to be Repeated

OS:PerformancePrecisionTradeoffs,
  {da4471e3-aa3b-4823-8d77-7bd11f880778}, !- Handle
  ,                                       !- Use Coil Direct Solutions
  CarrollMRT;                             !- Zone Radiant Exchange Algorithm

OS:ThermalZone,
  {f5fee8af-80c1-4b2f-acdf-85d9c618ad69}, !- Handle
  living space,                           !- Name
  ,                                       !- Multiplier
  ,                                       !- Ceiling Height {m}
  493.619269791744,                       !- Volume {m3}
  ,                                       !- Floor Area {m2}
  ,                                       !- Zone Inside Convection Algorithm
  ,                                       !- Zone Outside Convection Algorithm
  ,                                       !- Zone Conditioning Equipment List Name
  {9aac7dfd-7b4b-4ca1-9f67-de13ed2d5cbe}, !- Zone Air Inlet Port List
  {ee68c0a4-9910-41f6-934c-b2067e75dfb2}, !- Zone Air Exhaust Port List
  {8793751f-0211-458f-9c45-211f361be944}, !- Zone Air Node Name
  {a9c2544d-9307-4af9-ac77-e2c60942892b}, !- Zone Return Air Port List
  ,                                       !- Primary Daylighting Control Name
  ,                                       !- Fraction of Zone Controlled by Primary Daylighting Control
  ,                                       !- Secondary Daylighting Control Name
  ,                                       !- Fraction of Zone Controlled by Secondary Daylighting Control
  ,                                       !- Illuminance Map Name
  ,                                       !- Group Rendering Name
  {66a4e7ea-5799-48d3-bf65-ee3e41913cba}, !- Thermostat Name
  No;                                     !- Use Ideal Air Loads

OS:Node,
  {5f762aee-6bee-48c8-a607-563c53be5ab4}, !- Handle
  Node 1,                                 !- Name
  {8793751f-0211-458f-9c45-211f361be944}, !- Inlet Port
  ;                                       !- Outlet Port

OS:Connection,
  {8793751f-0211-458f-9c45-211f361be944}, !- Handle
  {f5fee8af-80c1-4b2f-acdf-85d9c618ad69}, !- Source Object
  11,                                     !- Outlet Port
  {5f762aee-6bee-48c8-a607-563c53be5ab4}, !- Target Object
  2;                                      !- Inlet Port

OS:PortList,
  {9aac7dfd-7b4b-4ca1-9f67-de13ed2d5cbe}, !- Handle
  {f5fee8af-80c1-4b2f-acdf-85d9c618ad69}, !- HVAC Component
  {884fb564-4f03-44d7-8538-d5e9daab5318}; !- Port 1

OS:PortList,
  {ee68c0a4-9910-41f6-934c-b2067e75dfb2}, !- Handle
  {f5fee8af-80c1-4b2f-acdf-85d9c618ad69}; !- HVAC Component

OS:PortList,
  {a9c2544d-9307-4af9-ac77-e2c60942892b}, !- Handle
  {f5fee8af-80c1-4b2f-acdf-85d9c618ad69}, !- HVAC Component
  {dffe6622-3f6b-4374-8a49-6108c86990ac}; !- Port 1

OS:Sizing:Zone,
  {11ecf016-e16c-42fb-a6cd-55f00d1b3703}, !- Handle
  {f5fee8af-80c1-4b2f-acdf-85d9c618ad69}, !- Zone or ZoneList Name
  SupplyAirTemperature,                   !- Zone Cooling Design Supply Air Temperature Input Method
  14,                                     !- Zone Cooling Design Supply Air Temperature {C}
  11.11,                                  !- Zone Cooling Design Supply Air Temperature Difference {deltaC}
  SupplyAirTemperature,                   !- Zone Heating Design Supply Air Temperature Input Method
  40,                                     !- Zone Heating Design Supply Air Temperature {C}
  11.11,                                  !- Zone Heating Design Supply Air Temperature Difference {deltaC}
  0.0085,                                 !- Zone Cooling Design Supply Air Humidity Ratio {kg-H2O/kg-air}
  0.008,                                  !- Zone Heating Design Supply Air Humidity Ratio {kg-H2O/kg-air}
  ,                                       !- Zone Heating Sizing Factor
  ,                                       !- Zone Cooling Sizing Factor
  DesignDay,                              !- Cooling Design Air Flow Method
  ,                                       !- Cooling Design Air Flow Rate {m3/s}
  ,                                       !- Cooling Minimum Air Flow per Zone Floor Area {m3/s-m2}
  ,                                       !- Cooling Minimum Air Flow {m3/s}
  ,                                       !- Cooling Minimum Air Flow Fraction
  DesignDay,                              !- Heating Design Air Flow Method
  ,                                       !- Heating Design Air Flow Rate {m3/s}
  ,                                       !- Heating Maximum Air Flow per Zone Floor Area {m3/s-m2}
  ,                                       !- Heating Maximum Air Flow {m3/s}
  ,                                       !- Heating Maximum Air Flow Fraction
  No,                                     !- Account for Dedicated Outdoor Air System
  NeutralSupplyAir,                       !- Dedicated Outdoor Air System Control Strategy
  autosize,                               !- Dedicated Outdoor Air Low Setpoint Temperature for Design {C}
  autosize,                               !- Dedicated Outdoor Air High Setpoint Temperature for Design {C}
  Sensible Load Only No Latent Load,      !- Zone Load Sizing Method
  HumidityRatioDifference,                !- Zone Latent Cooling Design Supply Air Humidity Ratio Input Method
  ,                                       !- Zone Dehumidification Design Supply Air Humidity Ratio {kgWater/kgDryAir}
  0.005,                                  !- Zone Cooling Design Supply Air Humidity Ratio Difference {kgWater/kgDryAir}
  HumidityRatioDifference,                !- Zone Latent Heating Design Supply Air Humidity Ratio Input Method
  ,                                       !- Zone Humidification Design Supply Air Humidity Ratio {kgWater/kgDryAir}
  0.005;                                  !- Zone Humidification Design Supply Air Humidity Ratio Difference {kgWater/kgDryAir}

OS:ZoneHVAC:EquipmentList,
  {f396c4a3-ad9d-4bd5-89dc-be8caa96b6d3}, !- Handle
  Zone HVAC Equipment List 1,             !- Name
  {f5fee8af-80c1-4b2f-acdf-85d9c618ad69}, !- Thermal Zone
  ,                                       !- Load Distribution Scheme
  {8e1c9290-1b69-48af-b9a0-bc2de1cdce0c}, !- Zone Equipment 1
  1,                                      !- Zone Equipment Cooling Sequence 1
  1,                                      !- Zone Equipment Heating or No-Load Sequence 1
  {d181b92a-7817-4a05-83d0-8a27dd5562eb}, !- Zone Equipment Sequential Cooling Fraction Schedule Name 1
  {2f844772-39ff-45b2-ab0b-4a2d12fe7132}; !- Zone Equipment Sequential Heating Fraction Schedule Name 1

OS:Space,
  {dbb24c72-5208-473b-8456-4e3400fd9bd1}, !- Handle
  living space 1,                         !- Name
  ,                                       !- Space Type Name
  ,                                       !- Default Construction Set Name
  ,                                       !- Default Schedule Set Name
  ,                                       !- Direction of Relative North {deg}
  ,                                       !- X Origin {m}
  ,                                       !- Y Origin {m}
  ,                                       !- Z Origin {m}
  ,                                       !- Building Story Name
  {f5fee8af-80c1-4b2f-acdf-85d9c618ad69}; !- Thermal Zone Name

OS:Schedule:Ruleset,
  {fd3e3d58-1caa-42b7-a2b4-5745b127bff4}, !- Handle
  heating setpoint,                       !- Name
  {1c8d1d54-67f8-4431-a276-94f6b4fb2c43}, !- Schedule Type Limits Name
  {5597e168-6178-4bd0-adc3-1f9fad5e763b}; !- Default Day Schedule Name

OS:Schedule:Day,
  {5597e168-6178-4bd0-adc3-1f9fad5e763b}, !- Handle
  heating setpoint default day,           !- Name
  {1c8d1d54-67f8-4431-a276-94f6b4fb2c43}, !- Schedule Type Limits Name
  ,                                       !- Interpolate to Timestep
  24,                                     !- Hour 1
  0,                                      !- Minute 1
  0;                                      !- Value Until Time 1

OS:Schedule:Rule,
  {0842bfd4-9452-48b4-ba0b-5da6fcdcd105}, !- Handle
  heating setpoint allday ruleset1,       !- Name
  {fd3e3d58-1caa-42b7-a2b4-5745b127bff4}, !- Schedule Ruleset Name
  0,                                      !- Rule Order
  {6020764f-f0de-4e7d-9668-c78498860adc}, !- Day Schedule Name
  Yes,                                    !- Apply Sunday
  Yes,                                    !- Apply Monday
  Yes,                                    !- Apply Tuesday
  Yes,                                    !- Apply Wednesday
  Yes,                                    !- Apply Thursday
  Yes,                                    !- Apply Friday
  Yes,                                    !- Apply Saturday
  DateRange,                              !- Date Specification Type
  1,                                      !- Start Month
  1,                                      !- Start Day
  12,                                     !- End Month
  31;                                     !- End Day

OS:Schedule:Day,
  {6020764f-f0de-4e7d-9668-c78498860adc}, !- Handle
  heating setpoint allday1,               !- Name
  {1c8d1d54-67f8-4431-a276-94f6b4fb2c43}, !- Schedule Type Limits Name
  ,                                       !- Interpolate to Timestep
  24,                                     !- Hour 1
  0,                                      !- Minute 1
  23.0555555555556;                       !- Value Until Time 1

OS:Schedule:Ruleset,
  {14b3b300-edf2-4d95-8e64-820ccc4afcd7}, !- Handle
  cooling setpoint,                       !- Name
  {1c8d1d54-67f8-4431-a276-94f6b4fb2c43}, !- Schedule Type Limits Name
  {d788ede9-307b-4a3b-94a4-2749e936c894}; !- Default Day Schedule Name

OS:Schedule:Day,
  {d788ede9-307b-4a3b-94a4-2749e936c894}, !- Handle
  cooling setpoint default day,           !- Name
  {1c8d1d54-67f8-4431-a276-94f6b4fb2c43}, !- Schedule Type Limits Name
  ,                                       !- Interpolate to Timestep
  24,                                     !- Hour 1
  0,                                      !- Minute 1
  0;                                      !- Value Until Time 1

OS:Schedule:Rule,
  {06ff7337-9a45-4bea-9a83-aabaeb17cfb5}, !- Handle
  cooling setpoint allday ruleset1,       !- Name
  {14b3b300-edf2-4d95-8e64-820ccc4afcd7}, !- Schedule Ruleset Name
  0,                                      !- Rule Order
  {784365fe-57a8-45af-a9be-d4cb11c026c5}, !- Day Schedule Name
  Yes,                                    !- Apply Sunday
  Yes,                                    !- Apply Monday
  Yes,                                    !- Apply Tuesday
  Yes,                                    !- Apply Wednesday
  Yes,                                    !- Apply Thursday
  Yes,                                    !- Apply Friday
  Yes,                                    !- Apply Saturday
  DateRange,                              !- Date Specification Type
  1,                                      !- Start Month
  1,                                      !- Start Day
  12,                                     !- End Month
  31;                                     !- End Day

OS:Schedule:Day,
  {784365fe-57a8-45af-a9be-d4cb11c026c5}, !- Handle
  cooling setpoint allday1,               !- Name
  {1c8d1d54-67f8-4431-a276-94f6b4fb2c43}, !- Schedule Type Limits Name
  ,                                       !- Interpolate to Timestep
  24,                                     !- Hour 1
  0,                                      !- Minute 1
  23.0555555555556;                       !- Value Until Time 1

OS:ThermostatSetpoint:DualSetpoint,
  {66a4e7ea-5799-48d3-bf65-ee3e41913cba}, !- Handle
  living space temperature setpoint,      !- Name
  {fd3e3d58-1caa-42b7-a2b4-5745b127bff4}, !- Heating Setpoint Temperature Schedule Name
  {14b3b300-edf2-4d95-8e64-820ccc4afcd7}; !- Cooling Setpoint Temperature Schedule Name

OS:ScheduleTypeLimits,
  {1c8d1d54-67f8-4431-a276-94f6b4fb2c43}, !- Handle
  Temperature,                            !- Name
  ,                                       !- Lower Limit Value
  ,                                       !- Upper Limit Value
  Continuous,                             !- Numeric Type
  Temperature;                            !- Unit Type

OS:Surface,
  {01756200-1c71-48b3-bdab-2106d40f47aa}, !- Handle
  Roof1,                                  !- Name
  RoofCeiling,                            !- Surface Type
  {e836fdc6-8726-46d0-8df0-77b418767634}, !- Construction Name
  {34a74d56-2c7c-4aa1-9010-59d7ef5602aa}, !- Space Name
  Outdoors,                               !- Outside Boundary Condition
  ,                                       !- Outside Boundary Condition Object
  SunExposed,                             !- Sun Exposure
  WindExposed,                            !- Wind Exposure
  ,                                       !- View Factor to Ground
  ,                                       !- Number of Vertices
  14.1952614437475, -36.60695196386, 5.1816, !- X,Y,Z Vertex 1 {m}
  14.1952614437475, -29.8792212106268, 8.54546537661661, !- X,Y,Z Vertex 2 {m}
  6.67342979447483, -29.8792212106268, 8.54546537661661, !- X,Y,Z Vertex 3 {m}
  6.67342979447483, -36.60695196386, 5.1816; !- X,Y,Z Vertex 4 {m}

OS:AdditionalProperties,
  {b13ce6dc-8866-4fe9-9381-b892dca3851d}, !- Handle
  {01756200-1c71-48b3-bdab-2106d40f47aa}, !- Object Name
  Length,                                 !- Feature Name 1
  Double,                                 !- Feature Data Type 1
  24.67792535850613,                      !- Feature Value 1
  Width,                                  !- Feature Name 2
  Double,                                 !- Feature Data Type 2
  24.677925358506133,                     !- Feature Value 2
  Azimuth,                                !- Feature Name 3
  Integer,                                !- Feature Data Type 3
  180,                                    !- Feature Value 3
  Tilt,                                   !- Feature Name 4
  Double,                                 !- Feature Data Type 4
  0.5,                                    !- Feature Value 4
  SurfaceType,                            !- Feature Name 5
  String,                                 !- Feature Data Type 5
  Roof;                                   !- Feature Value 5

OS:ThermalZone,
  {04202639-2ca3-474c-88f4-edeeda5502df}, !- Handle
  attic - vented,                         !- Name
  ,                                       !- Multiplier
  ,                                       !- Ceiling Height {m}
  107.906112527125,                       !- Volume {m3}
  ,                                       !- Floor Area {m2}
  ,                                       !- Zone Inside Convection Algorithm
  ,                                       !- Zone Outside Convection Algorithm
  ,                                       !- Zone Conditioning Equipment List Name
  {6287ecb4-2917-445e-b948-918aae3a3021}, !- Zone Air Inlet Port List
  {671fe963-3bb5-49a5-a03c-6cb15f61820c}, !- Zone Air Exhaust Port List
  {dbb2d4e3-ac79-4474-860d-f4f762018fac}, !- Zone Air Node Name
  {3966d729-31f1-43fe-bcd0-c23a530a1bfd}, !- Zone Return Air Port List
  ,                                       !- Primary Daylighting Control Name
  ,                                       !- Fraction of Zone Controlled by Primary Daylighting Control
  ,                                       !- Secondary Daylighting Control Name
  ,                                       !- Fraction of Zone Controlled by Secondary Daylighting Control
  ,                                       !- Illuminance Map Name
  ,                                       !- Group Rendering Name
  ,                                       !- Thermostat Name
  No;                                     !- Use Ideal Air Loads

OS:Node,
  {f279ac0f-d1e8-49cd-a053-b00949871a53}, !- Handle
  Node 2,                                 !- Name
  {dbb2d4e3-ac79-4474-860d-f4f762018fac}, !- Inlet Port
  ;                                       !- Outlet Port

OS:Connection,
  {dbb2d4e3-ac79-4474-860d-f4f762018fac}, !- Handle
  {04202639-2ca3-474c-88f4-edeeda5502df}, !- Source Object
  11,                                     !- Outlet Port
  {f279ac0f-d1e8-49cd-a053-b00949871a53}, !- Target Object
  2;                                      !- Inlet Port

OS:PortList,
  {6287ecb4-2917-445e-b948-918aae3a3021}, !- Handle
  {04202639-2ca3-474c-88f4-edeeda5502df}; !- HVAC Component

OS:PortList,
  {671fe963-3bb5-49a5-a03c-6cb15f61820c}, !- Handle
  {04202639-2ca3-474c-88f4-edeeda5502df}; !- HVAC Component

OS:PortList,
  {3966d729-31f1-43fe-bcd0-c23a530a1bfd}, !- Handle
  {04202639-2ca3-474c-88f4-edeeda5502df}; !- HVAC Component

OS:Sizing:Zone,
  {ab73f02e-7c43-4bc5-9503-e5193b225101}, !- Handle
  {04202639-2ca3-474c-88f4-edeeda5502df}, !- Zone or ZoneList Name
  SupplyAirTemperature,                   !- Zone Cooling Design Supply Air Temperature Input Method
  14,                                     !- Zone Cooling Design Supply Air Temperature {C}
  11.11,                                  !- Zone Cooling Design Supply Air Temperature Difference {deltaC}
  SupplyAirTemperature,                   !- Zone Heating Design Supply Air Temperature Input Method
  40,                                     !- Zone Heating Design Supply Air Temperature {C}
  11.11,                                  !- Zone Heating Design Supply Air Temperature Difference {deltaC}
  0.0085,                                 !- Zone Cooling Design Supply Air Humidity Ratio {kg-H2O/kg-air}
  0.008,                                  !- Zone Heating Design Supply Air Humidity Ratio {kg-H2O/kg-air}
  ,                                       !- Zone Heating Sizing Factor
  ,                                       !- Zone Cooling Sizing Factor
  DesignDay,                              !- Cooling Design Air Flow Method
  ,                                       !- Cooling Design Air Flow Rate {m3/s}
  ,                                       !- Cooling Minimum Air Flow per Zone Floor Area {m3/s-m2}
  ,                                       !- Cooling Minimum Air Flow {m3/s}
  ,                                       !- Cooling Minimum Air Flow Fraction
  DesignDay,                              !- Heating Design Air Flow Method
  ,                                       !- Heating Design Air Flow Rate {m3/s}
  ,                                       !- Heating Maximum Air Flow per Zone Floor Area {m3/s-m2}
  ,                                       !- Heating Maximum Air Flow {m3/s}
  ,                                       !- Heating Maximum Air Flow Fraction
  No,                                     !- Account for Dedicated Outdoor Air System
  NeutralSupplyAir,                       !- Dedicated Outdoor Air System Control Strategy
  autosize,                               !- Dedicated Outdoor Air Low Setpoint Temperature for Design {C}
  autosize,                               !- Dedicated Outdoor Air High Setpoint Temperature for Design {C}
  Sensible Load Only No Latent Load,      !- Zone Load Sizing Method
  HumidityRatioDifference,                !- Zone Latent Cooling Design Supply Air Humidity Ratio Input Method
  ,                                       !- Zone Dehumidification Design Supply Air Humidity Ratio {kgWater/kgDryAir}
  0.005,                                  !- Zone Cooling Design Supply Air Humidity Ratio Difference {kgWater/kgDryAir}
  HumidityRatioDifference,                !- Zone Latent Heating Design Supply Air Humidity Ratio Input Method
  ,                                       !- Zone Humidification Design Supply Air Humidity Ratio {kgWater/kgDryAir}
  0.005;                                  !- Zone Humidification Design Supply Air Humidity Ratio Difference {kgWater/kgDryAir}

OS:ZoneHVAC:EquipmentList,
  {b1b9e15f-5fce-454d-9ceb-131fdf0a2928}, !- Handle
  Zone HVAC Equipment List 2,             !- Name
  {04202639-2ca3-474c-88f4-edeeda5502df}; !- Thermal Zone

OS:Space,
  {34a74d56-2c7c-4aa1-9010-59d7ef5602aa}, !- Handle
  attic - vented 1,                       !- Name
  ,                                       !- Space Type Name
  ,                                       !- Default Construction Set Name
  ,                                       !- Default Schedule Set Name
  ,                                       !- Direction of Relative North {deg}
  ,                                       !- X Origin {m}
  ,                                       !- Y Origin {m}
  ,                                       !- Z Origin {m}
  ,                                       !- Building Story Name
  {04202639-2ca3-474c-88f4-edeeda5502df}; !- Thermal Zone Name

OS:Material,
  {1844dfbd-006b-4453-b5f5-1a1c27f556fd}, !- Handle
  asphalt or fiberglass shingles,         !- Name
  Rough,                                  !- Roughness
  0.00635,                                !- Thickness {m}
  0.162714,                               !- Conductivity {W/m-K}
  1121.4,                                 !- Density {kg/m3}
  1465.45,                                !- Specific Heat {J/kg-K}
  0.9,                                    !- Thermal Absorptance
  0.85,                                   !- Solar Absorptance
  0.85;                                   !- Visible Absorptance

OS:Material,
  {ea3fd6f6-7cfa-4a23-9b36-e915870ca517}, !- Handle
  roof rigid ins,                         !- Name
  Rough,                                  !- Roughness
  0.0028163194147757,                     !- Thickness {m}
  0.029427,                               !- Conductivity {W/m-K}
  32.04,                                  !- Density {kg/m3}
  1214.23,                                !- Specific Heat {J/kg-K}
  0.9,                                    !- Thermal Absorptance
  0.7,                                    !- Solar Absorptance
  0.7;                                    !- Visible Absorptance

OS:Material,
  {3682513b-1071-439d-9b83-b53246308d03}, !- Handle
  osb sheathing 0.5 in.,                  !- Name
  Rough,                                  !- Roughness
  0.0127,                                 !- Thickness {m}
  0.1154577,                              !- Conductivity {W/m-K}
  512.64,                                 !- Density {kg/m3}
  1214.23,                                !- Specific Heat {J/kg-K}
  0.9,                                    !- Thermal Absorptance
  0.6,                                    !- Solar Absorptance
  0.6;                                    !- Visible Absorptance

OS:Construction,
  {e836fdc6-8726-46d0-8df0-77b418767634}, !- Handle
  Roof1 construction,                     !- Name
  ,                                       !- Surface Rendering Name
  {1844dfbd-006b-4453-b5f5-1a1c27f556fd}, !- Layer 1
  {ea3fd6f6-7cfa-4a23-9b36-e915870ca517}, !- Layer 2
  {3682513b-1071-439d-9b83-b53246308d03}; !- Layer 3

OS:Surface,
  {b32b7278-4c6a-4509-8fb8-36a14217151c}, !- Handle
  Roof2,                                  !- Name