
OS:Version,
  {0be3c991-4614-4b37-a9ef-5d6aa37f05ba}, !- Handle
  3.6.1;                                  !- Version Identifier

OS:WeatherFile,
  {8c883933-6750-4fac-beb4-3c1d5a34eabc}, !- Handle
  Newport News,                           !- City
  VA,                                     !- State Province Region
  USA,                                    !- Country
  TMY3,                                   !- Data Source
  723086,                                 !- WMO Number
  37.13,                                  !- Latitude {deg}
  -76.5,                                  !- Longitude {deg}
  -5,                                     !- Time Zone {hr}
  13,                                     !- Elevation {m}
  C:/Users/ylou2/Desktop/resstock-3.1.0/national_baseline/run1/run/../../../weather/G5107000.epw, !- Url
  D9FBDE43,                               !- Checksum
  ,                                       !- Start Date Actual Year
  Sunday;                                 !- Start Day of Week

OS:YearDescription,
  {23215320-90c2-4e12-ae36-34ad63ac50ea}, !- Handle
  2007,                                   !- Calendar Year
  ,                                       !- Day of Week for Start Day
  ;                                       !- Is Leap Year

OS:Site,
  {4aeb5196-d01a-4f91-b09d-9610432160c9}, !- Handle
  Newport News_VA_USA,                    !- Name
  37.13,                                  !- Latitude {deg}
  -76.5,                                  !- Longitude {deg}
  -5,                                     !- Time Zone {hr}
  13,                                     !- Elevation {m}
  Suburbs;                                !- Terrain

OS:RunPeriodControl:DaylightSavingTime,
  {634454aa-d976-4e96-a005-3d9b5a4b2f1a}, !- Handle
  Mar 12,                                 !- Start Date
  Nov 5;                                  !- End Date

OS:Site:GroundTemperature:Shallow,
  {d046780f-d074-47a0-8d46-02de86f338d7}, !- Handle
  11.5798041031018,                       !- January Surface Ground Temperature {C}
  9.8237801922497,                        !- February Surface Ground Temperature {C}
  9.68315149999228,                       !- March Surface Ground Temperature {C}
  10.5164745721926,                       !- April Surface Ground Temperature {C}
  13.8618023429573,                       !- May Surface Ground Temperature {C}
  17.191546157803,                        !- June Surface Ground Temperature {C}
  20.0782560896172,                       !- July Surface Ground Temperature {C}
  21.9069158342376,                       !- August Surface Ground Temperature {C}
  22.0622705236571,                       !- September Surface Ground Temperature {C}
  20.5749631771632,                       !- October Surface Ground Temperature {C}
  17.7618660434403,                       !- November Surface Ground Temperature {C}
  14.5342652065491;                       !- December Surface Ground Temperature {C}

OS:Site:GroundTemperature:Deep,
  {4243a343-90c5-4316-8ed5-69a3cc1ac9e5}, !- Handle
  15.7061872146119,                       !- January Deep Ground Temperature {C}
  15.7061872146119,                       !- February Deep Ground Temperature {C}
  15.7061872146119,                       !- March Deep Ground Temperature {C}
  15.7061872146119,                       !- April Deep Ground Temperature {C}
  15.7061872146119,                       !- May Deep Ground Temperature {C}
  15.7061872146119,                       !- June Deep Ground Temperature {C}
  15.7061872146119,                       !- July Deep Ground Temperature {C}
  15.7061872146119,                       !- August Deep Ground Temperature {C}
  15.7061872146119,                       !- September Deep Ground Temperature {C}
  15.7061872146119,                       !- October Deep Ground Temperature {C}
  15.7061872146119,                       !- November Deep Ground Temperature {C}
  15.7061872146119;                       !- December Deep Ground Temperature {C}

OS:SimulationControl,
  {2bbf8680-1e4f-4bec-8e52-8e0193d20966}, !- Handle
  ,                                       !- Do Zone Sizing Calculation
  ,                                       !- Do System Sizing Calculation
  ,                                       !- Do Plant Sizing Calculation
  No;                                     !- Run Simulation for Sizing Periods

OS:Timestep,
  {0f235697-f4ae-4522-81e2-6fb1a0cf61e7}, !- Handle
  1;                                      !- Number of Timesteps per Hour

OS:ShadowCalculation,
  {1e8adb20-49d0-441e-920a-bcdb9ff8f5ad}, !- Handle
  PolygonClipping,                        !- Shading Calculation Method
  ,                                       !- Shading Calculation Update Frequency Method
  20,                                     !- Shading Calculation Update Frequency
  200,                                    !- Maximum Figures in Shadow Overlap Calculations
  ,                                       !- Polygon Clipping Algorithm
  512,                                    !- Pixel Counting Resolution
  DetailedSkyDiffuseModeling,             !- Sky Diffuse Modeling Algorithm
  No,                                     !- Output External Shading Calculation Results
  No,                                     !- Disable Self-Shading Within Shading Zone Groups
  No;                                     !- Disable Self-Shading From Shading Zone Groups to Other Zones

OS:SurfaceConvectionAlgorithm:Outside,
  {d1b9816e-78dc-4336-859f-e32e36aff996}, !- Handle
  DOE-2;                                  !- Algorithm

OS:SurfaceConvectionAlgorithm:Inside,
  {b21df903-c608-4fe6-aded-6015fdad9907}, !- Handle
  TARP;                                   !- Algorithm

OS:ZoneCapacitanceMultiplier:ResearchSpecial,
  {fc5c9b0e-ab25-45f6-8cf2-dd52bacdefab}, !- Handle
  1,                                      !- Temperature Capacity Multiplier
  15,                                     !- Humidity Capacity Multiplier
  ;                                       !- Carbon Dioxide Capacity Multiplier

OS:ConvergenceLimits,
  {b28af2f9-fea2-49a4-a66f-770588ad89be}, !- Handle
  0;                                      !- Minimum System Timestep {minutes}

OS:RunPeriod,
  {e98d4c6a-3f28-4b67-9d5e-9047c05a31bf}, !- Handle
  Run Period 1,                           !- Name
  1,                                      !- Begin Month
  1,                                      !- Begin Day of Month
  12,                                     !- End Month
  31,                                     !- End Day of Month
  ,                                       !- Use Weather File Holidays and Special Days
  ,                                       !- Use Weather File Daylight Saving Period
  ,                                       !- Apply Weekend Holiday Rule
  ,                                       !- Use Weather File Rain Indicators
  ,                                       !- Use Weather File Snow Indicators
  ;                                       !- Number of Times Runperiod to be Repeated

OS:PerformancePrecisionTradeoffs,
  {135173bf-48f6-4e0d-85e7-ab5a17f41f9e}, !- Handle
  ,                                       !- Use Coil Direct Solutions
  CarrollMRT;                             !- Zone Radiant Exchange Algorithm

OS:ThermalZone,
  {5d429f00-b41b-4131-87ec-4248bc57e35f}, !- Handle
  living space,                           !- Name
  ,                                       !- Multiplier
  ,                                       !- Ceiling Height {m}
  384.656044105728,                       !- Volume {m3}
  ,                                       !- Floor Area {m2}
  ,                                       !- Zone Inside Convection Algorithm
  ,                                       !- Zone Outside Convection Algorithm
  ,                                       !- Zone Conditioning Equipment List Name
  {39c96643-db77-4607-b27d-e0a7469da17c}, !- Zone Air Inlet Port List
  {83b3fc9c-81e7-4816-ac3b-62011de8d056}, !- Zone Air Exhaust Port List
  {c935f78b-74e8-4187-866c-d679f3644e92}, !- Zone Air Node Name
  {5c3dd69e-f17d-45d3-a6d9-0af93cba9229}, !- Zone Return Air Port List
  ,                                       !- Primary Daylighting Control Name
  ,                                       !- Fraction of Zone Controlled by Primary Daylighting Control
  ,                                       !- Secondary Daylighting Control Name
  ,                                       !- Fraction of Zone Controlled by Secondary Daylighting Control
  ,                                       !- Illuminance Map Name
  ,                                       !- Group Rendering Name
  {8987552f-e820-404d-af0b-5689d2f666e8}, !- Thermostat Name
  No;                                     !- Use Ideal Air Loads

OS:Node,
  {c522707d-3f5b-4744-9131-3c6eea257166}, !- Handle
  Node 1,                                 !- Name
  {c935f78b-74e8-4187-866c-d679f3644e92}, !- Inlet Port
  ;                                       !- Outlet Port

OS:Connection,
  {c935f78b-74e8-4187-866c-d679f3644e92}, !- Handle
  {5d429f00-b41b-4131-87ec-4248bc57e35f}, !- Source Object
  11,                                     !- Outlet Port
  {c522707d-3f5b-4744-9131-3c6eea257166}, !- Target Object
  2;                                      !- Inlet Port

OS:PortList,
  {39c96643-db77-4607-b27d-e0a7469da17c}, !- Handle
  {5d429f00-b41b-4131-87ec-4248bc57e35f}, !- HVAC Component
  {49cfeedf-c768-4d26-ab0f-27e4d0ee6d63}; !- Port 1

OS:PortList,
  {83b3fc9c-81e7-4816-ac3b-62011de8d056}, !- Handle
  {5d429f00-b41b-4131-87ec-4248bc57e35f}; !- HVAC Component

OS:PortList,
  {5c3dd69e-f17d-45d3-a6d9-0af93cba9229}, !- Handle
  {5d429f00-b41b-4131-87ec-4248bc57e35f}, !- HVAC Component
  {cc362f29-7ee0-4c4f-943a-2af192939637}; !- Port 1

OS:Sizing:Zone,
  {89c8fd24-6d94-406f-9d1d-891c6c4fa264}, !- Handle
  {5d429f00-b41b-4131-87ec-4248bc57e35f}, !- Zone or ZoneList Name
  SupplyAirTemperature,                   !- Zone Cooling Design Supply Air Temperature Input Method
  14,                                     !- Zone Cooling Design Supply Air Temperature {C}
  11.11,                                  !- Zone Cooling Design Supply Air Temperature Difference {deltaC}
  SupplyAirTemperature,                   !- Zone Heating Design Supply Air Temperature Input Method
  40,                                     !- Zone Heating Design Supply Air Temperature {C}
  11.11,                                  !- Zone Heating Design Supply Air Temperature Difference {deltaC}
  0.0085,                                 !- Zone Cooling Design Supply Air Humidity Ratio {kg-H2O/kg-air}
  0.008,                                  !- Zone Heating Design Supply Air Humidity Ratio {kg-H2O/kg-air}
  ,                                       !- Zone Heating Sizing Factor
  ,                                       !- Zone Cooling Sizing Factor
  DesignDay,                              !- Cooling Design Air Flow Method
  ,                                       !- Cooling Design Air Flow Rate {m3/s}
  ,                                       !- Cooling Minimum Air Flow per Zone Floor Area {m3/s-m2}
  ,                                       !- Cooling Minimum Air Flow {m3/s}
  ,                                       !- Cooling Minimum Air Flow Fraction
  DesignDay,                              !- Heating Design Air Flow Method
  ,                                       !- Heating Design Air Flow Rate {m3/s}
  ,                                       !- Heating Maximum Air Flow per Zone Floor Area {m3/s-m2}
  ,                                       !- Heating Maximum Air Flow {m3/s}
  ,                                       !- Heating Maximum Air Flow Fraction
  No,                                     !- Account for Dedicated Outdoor Air System
  NeutralSupplyAir,                       !- Dedicated Outdoor Air System Control Strategy
  autosize,                               !- Dedicated Outdoor Air Low Setpoint Temperature for Design {C}
  autosize,                               !- Dedicated Outdoor Air High Setpoint Temperature for Design {C}
  Sensible Load Only No Latent Load,      !- Zone Load Sizing Method
  HumidityRatioDifference,                !- Zone Latent Cooling Design Supply Air Humidity Ratio Input Method
  ,                                       !- Zone Dehumidification Design Supply Air Humidity Ratio {kgWater/kgDryAir}
  0.005,                                  !- Zone Cooling Design Supply Air Humidity Ratio Difference {kgWater/kgDryAir}
  HumidityRatioDifference,                !- Zone Latent Heating Design Supply Air Humidity Ratio Input Method
  ,                                       !- Zone Humidification Design Supply Air Humidity Ratio {kgWater/kgDryAir}
  0.005;                                  !- Zone Humidification Design Supply Air Humidity Ratio Difference {kgWater/kgDryAir}

OS:ZoneHVAC:EquipmentList,
  {4a3e9cbd-b81c-481a-8a98-0d1bb26509c8}, !- Handle
  Zone HVAC Equipment List 1,             !- Name
  {5d429f00-b41b-4131-87ec-4248bc57e35f}, !- Thermal Zone
  ,                                       !- Load Distribution Scheme
  {1ccca6b0-ef46-4286-a913-3d3c3b436cc4}, !- Zone Equipment 1
  1,                                      !- Zone Equipment Cooling Sequence 1
  1,                                      !- Zone Equipment Heating or No-Load Sequence 1
  {196bcb5b-a1f0-4b59-ae75-b6f7a01601bc}, !- Zone Equipment Sequential Cooling Fraction Schedule Name 1
  {0d61e08f-68e9-46ba-9081-8419e71b6c68}; !- Zone Equipment Sequential Heating Fraction Schedule Name 1

OS:Space,
  {d0ed4a9d-1f65-4013-a7dd-630b108fe44c}, !- Handle
  living space 1,                         !- Name
  ,                                       !- Space Type Name
  ,                                       !- Default Construction Set Name
  ,                                       !- Default Schedule Set Name
  ,                                       !- Direction of Relative North {deg}
  ,                                       !- X Origin {m}
  ,                                       !- Y Origin {m}
  ,                                       !- Z Origin {m}
  ,                                       !- Building Story Name
  {5d429f00-b41b-4131-87ec-4248bc57e35f}; !- Thermal Zone Name

OS:Schedule:Ruleset,
  {79441f57-de99-49bd-adaf-6460772acbba}, !- Handle
  heating setpoint,                       !- Name
  {2d698f87-043f-4007-a887-b2a6e3e33146}, !- Schedule Type Limits Name
  {672b5da4-912d-447f-aee2-a5b032b3e1ea}; !- Default Day Schedule Name

OS:Schedule:Day,
  {672b5da4-912d-447f-aee2-a5b032b3e1ea}, !- Handle
  heating setpoint default day,           !- Name
  {2d698f87-043f-4007-a887-b2a6e3e33146}, !- Schedule Type Limits Name
  ,                                       !- Interpolate to Timestep
  24,                                     !- Hour 1
  0,                                      !- Minute 1
  0;                                      !- Value Until Time 1

OS:Schedule:Rule,
  {3cc73522-7fb4-4e91-a34a-4467d774d618}, !- Handle
  heating setpoint allday ruleset1,       !- Name
  {79441f57-de99-49bd-adaf-6460772acbba}, !- Schedule Ruleset Name
  0,                                      !- Rule Order
  {4660aae9-e590-47e7-925e-d66d513d6037}, !- Day Schedule Name
  Yes,                                    !- Apply Sunday
  Yes,                                    !- Apply Monday
  Yes,                                    !- Apply Tuesday
  Yes,                                    !- Apply Wednesday
  Yes,                                    !- Apply Thursday
  Yes,                                    !- Apply Friday
  Yes,                                    !- Apply Saturday
  DateRange,                              !- Date Specification Type
  1,                                      !- Start Month
  1,                                      !- Start Day
  12,                                     !- End Month
  31;                                     !- End Day

OS:Schedule:Day,
  {4660aae9-e590-47e7-925e-d66d513d6037}, !- Handle
  heating setpoint allday1,               !- Name
  {2d698f87-043f-4007-a887-b2a6e3e33146}, !- Schedule Type Limits Name
  ,                                       !- Interpolate to Timestep
  24,                                     !- Hour 1
  0,                                      !- Minute 1
  21.1111111111111;                       !- Value Until Time 1

OS:Schedule:Ruleset,
  {87e6e7b1-03ab-4c7e-9a99-d27f634e4479}, !- Handle
  cooling setpoint,                       !- Name
  {2d698f87-043f-4007-a887-b2a6e3e33146}, !- Schedule Type Limits Name
  {000e7daf-c3f9-4ac9-ac15-269e8aaaa0ac}; !- Default Day Schedule Name

OS:Schedule:Day,
  {000e7daf-c3f9-4ac9-ac15-269e8aaaa0ac}, !- Handle
  cooling setpoint default day,           !- Name
  {2d698f87-043f-4007-a887-b2a6e3e33146}, !- Schedule Type Limits Name
  ,                                       !- Interpolate to Timestep
  24,                                     !- Hour 1
  0,                                      !- Minute 1
  0;                                      !- Value Until Time 1

OS:Schedule:Rule,
  {dd2ee6be-81c9-4ee8-b361-e2a34533ab4a}, !- Handle
  cooling setpoint allday ruleset1,       !- Name
  {87e6e7b1-03ab-4c7e-9a99-d27f634e4479}, !- Schedule Ruleset Name
  0,                                      !- Rule Order
  {1bc18fc1-d368-4cb1-ab10-0141824c6531}, !- Day Schedule Name
  Yes,                                    !- Apply Sunday
  Yes,                                    !- Apply Monday
  Yes,                                    !- Apply Tuesday
  Yes,                                    !- Apply Wednesday
  Yes,                                    !- Apply Thursday
  Yes,                                    !- Apply Friday
  Yes,                                    !- Apply Saturday
  DateRange,                              !- Date Specification Type
  1,                                      !- Start Month
  1,                                      !- Start Day
  12,                                     !- End Month
  31;                                     !- End Day

OS:Schedule:Day,
  {1bc18fc1-d368-4cb1-ab10-0141824c6531}, !- Handle
  cooling setpoint allday1,               !- Name
  {2d698f87-043f-4007-a887-b2a6e3e33146}, !- Schedule Type Limits Name
  ,                                       !- Interpolate to Timestep
  24,                                     !- Hour 1
  0,                                      !- Minute 1
  23.8888888888889;                       !- Value Until Time 1

OS:ThermostatSetpoint:DualSetpoint,
  {8987552f-e820-404d-af0b-5689d2f666e8}, !- Handle
  living space temperature setpoint,      !- Name
  {79441f57-de99-49bd-adaf-6460772acbba}, !- Heating Setpoint Temperature Schedule Name
  {87e6e7b1-03ab-4c7e-9a99-d27f634e4479}; !- Cooling Setpoint Temperature Schedule Name

OS:ScheduleTypeLimits,
  {2d698f87-043f-4007-a887-b2a6e3e33146}, !- Handle
  Temperature,                            !- Name
  ,                                       !- Lower Limit Value
  ,                                       !- Upper Limit Value
  Continuous,                             !- Numeric Type
  Temperature;                            !- Unit Type

OS:Surface,
  {20061ffd-5511-45ad-b861-a274a54cd95b}, !- Handle
  Roof1,                                  !- Name
  RoofCeiling,                            !- Surface Type
  {10b3ea87-c321-4746-a696-174c6af1c39b}, !- Construction Name
  {36617a02-581d-4f96-9261-837bd4583597}, !- Space Name
  Outdoors,                               !- Outside Boundary Condition
  ,                                       !- Outside Boundary Condition Object
  SunExposed,                             !- Sun Exposure
  WindExposed,                            !- Wind Exposure
  ,                                       !- View Factor to Ground
  ,                                       !- Number of Vertices
  27.5833395815796, -49.0754126553157, 2.7432, !- X,Y,Z Vertex 1 {m}
  27.5833395815796, -40.6761952837744, 6.94280868577062, !- X,Y,Z Vertex 2 {m}
  18.1927290812979, -40.6761952837744, 6.94280868577062, !- X,Y,Z Vertex 3 {m}
  18.1927290812979, -49.0754126553157, 2.7432; !- X,Y,Z Vertex 4 {m}

OS:AdditionalProperties,
  {1a613183-edd0-4810-961a-83c6f11e52bb}, !- Handle
  {20061ffd-5511-45ad-b861-a274a54cd95b}, !- Object Name
  Length,                                 !- Feature Name 1
  Double,                                 !- Feature Data Type 1
  30.809089567853189,                     !- Feature Value 1
  Width,                                  !- Feature Name 2
  Double,                                 !- Feature Data Type 2
  30.809089567853185,                     !- Feature Value 2
  Azimuth,                                !- Feature Name 3
  Integer,                                !- Feature Data Type 3
  180,                                    !- Feature Value 3
  Tilt,                                   !- Feature Name 4
  Double,                                 !- Feature Data Type 4
  0.5,                                    !- Feature Value 4
  SurfaceType,                            !- Feature Name 5
  String,                                 !- Feature Data Type 5
  Roof;                                   !- Feature Value 5

OS:ThermalZone,
  {24500a0e-ff1f-4be0-bee6-0e9fdb4b6ecd}, !- Handle
  attic - vented,                         !- Name
  ,                                       !- Multiplier
  ,                                       !- Ceiling Height {m}
  147.677783132844,                       !- Volume {m3}
  ,                                       !- Floor Area {m2}
  ,                                       !- Zone Inside Convection Algorithm
  ,                                       !- Zone Outside Convection Algorithm
  ,                                       !- Zone Conditioning Equipment List Name
  {c2a36528-260e-4615-935e-4015df1c9c9d}, !- Zone Air Inlet Port List
  {a97ed3b4-4647-45df-9197-9774f60486c2}, !- Zone Air Exhaust Port List
  {13e9d51a-a6bf-471a-8f66-4c587c70186b}, !- Zone Air Node Name
  {11722f9b-2f1a-4321-9da3-f50a3fdadae0}, !- Zone Return Air Port List
  ,                                       !- Primary Daylighting Control Name
  ,                                       !- Fraction of Zone Controlled by Primary Daylighting Control
  ,                                       !- Secondary Daylighting Control Name
  ,                                       !- Fraction of Zone Controlled by Secondary Daylighting Control
  ,                                       !- Illuminance Map Name
  ,                                       !- Group Rendering Name
  ,                                       !- Thermostat Name
  No;                                     !- Use Ideal Air Loads

OS:Node,
  {364d29b0-5aad-46b0-adb2-71d57d5b0f07}, !- Handle
  Node 2,                                 !- Name
  {13e9d51a-a6bf-471a-8f66-4c587c70186b}, !- Inlet Port
  ;                                       !- Outlet Port

OS:Connection,
  {13e9d51a-a6bf-471a-8f66-4c587c70186b}, !- Handle
  {24500a0e-ff1f-4be0-bee6-0e9fdb4b6ecd}, !- Source Object
  11,                                     !- Outlet Port
  {364d29b0-5aad-46b0-adb2-71d57d5b0f07}, !- Target Object
  2;                                      !- Inlet Port

OS:PortList,
  {c2a36528-260e-4615-935e-4015df1c9c9d}, !- Handle
  {24500a0e-ff1f-4be0-bee6-0e9fdb4b6ecd}; !- HVAC Component

OS:PortList,
  {a97ed3b4-4647-45df-9197-9774f60486c2}, !- Handle
  {24500a0e-ff1f-4be0-bee6-0e9fdb4b6ecd}; !- HVAC Component

OS:PortList,
  {11722f9b-2f1a-4321-9da3-f50a3fdadae0}, !- Handle
  {24500a0e-ff1f-4be0-bee6-0e9fdb4b6ecd}; !- HVAC Component

OS:Sizing:Zone,
  {bf75ad08-a473-4a48-8fa9-aa42faa8706f}, !- Handle
  {24500a0e-ff1f-4be0-bee6-0e9fdb4b6ecd}, !- Zone or ZoneList Name
  SupplyAirTemperature,                   !- Zone Cooling Design Supply Air Temperature Input Method
  14,                                     !- Zone Cooling Design Supply Air Temperature {C}
  11.11,                                  !- Zone Cooling Design Supply Air Temperature Difference {deltaC}
  SupplyAirTemperature,                   !- Zone Heating Design Supply Air Temperature Input Method
  40,                                     !- Zone Heating Design Supply Air Temperature {C}
  11.11,                                  !- Zone Heating Design Supply Air Temperature Difference {deltaC}
  0.0085,                                 !- Zone Cooling Design Supply Air Humidity Ratio {kg-H2O/kg-air}
  0.008,                                  !- Zone Heating Design Supply Air Humidity Ratio {kg-H2O/kg-air}
  ,                                       !- Zone Heating Sizing Factor
  ,                                       !- Zone Cooling Sizing Factor
  DesignDay,                              !- Cooling Design Air Flow Method
  ,                                       !- Cooling Design Air Flow Rate {m3/s}
  ,                                       !- Cooling Minimum Air Flow per Zone Floor Area {m3/s-m2}
  ,                                       !- Cooling Minimum Air Flow {m3/s}
  ,                                       !- Cooling Minimum Air Flow Fraction
  DesignDay,                              !- Heating Design Air Flow Method
  ,                                       !- Heating Design Air Flow Rate {m3/s}
  ,                                       !- Heating Maximum Air Flow per Zone Floor Area {m3/s-m2}
  ,                                       !- Heating Maximum Air Flow {m3/s}
  ,                                       !- Heating Maximum Air Flow Fraction
  No,                                     !- Account for Dedicated Outdoor Air System
  NeutralSupplyAir,                       !- Dedicated Outdoor Air System Control Strategy
  autosize,                               !- Dedicated Outdoor Air Low Setpoint Temperature for Design {C}
  autosize,                               !- Dedicated Outdoor Air High Setpoint Temperature for Design {C}
  Sensible Load Only No Latent Load,      !- Zone Load Sizing Method
  HumidityRatioDifference,                !- Zone Latent Cooling Design Supply Air Humidity Ratio Input Method
  ,                                       !- Zone Dehumidification Design Supply Air Humidity Ratio {kgWater/kgDryAir}
  0.005,                                  !- Zone Cooling Design Supply Air Humidity Ratio Difference {kgWater/kgDryAir}
  HumidityRatioDifference,                !- Zone Latent Heating Design Supply Air Humidity Ratio Input Method
  ,                                       !- Zone Humidification Design Supply Air Humidity Ratio {kgWater/kgDryAir}
  0.005;                                  !- Zone Humidification Design Supply Air Humidity Ratio Difference {kgWater/kgDryAir}

OS:ZoneHVAC:EquipmentList,
  {14c56180-96ff-473e-a5e3-79d4d87543a7}, !- Handle
  Zone HVAC Equipment List 2,             !- Name
  {24500a0e-ff1f-4be0-bee6-0e9fdb4b6ecd}; !- Thermal Zone

OS:Space,
  {36617a02-581d-4f96-9261-837bd4583597}, !- Handle
  attic - vented 1,                       !- Name
  ,                                       !- Space Type Name
  ,                                       !- Default Construction Set Name
  ,                                       !- Default Schedule Set Name
  ,                                       !- Direction of Relative North {deg}
  ,                                       !- X Origin {m}
  ,                                       !- Y Origin {m}
  ,                                       !- Z Origin {m}
  ,                                       !- Building Story Name
  {24500a0e-ff1f-4be0-bee6-0e9fdb4b6ecd}; !- Thermal Zone Name

OS:Material,
  {61b58d4a-68bb-4c9b-bf51-e4f917cfeff9}, !- Handle
  asphalt or fiberglass shingles,         !- Name
  Rough,                                  !- Roughness
  0.00635,                                !- Thickness {m}
  0.162714,                               !- Conductivity {W/m-K}
  1121.4,                                 !- Density {kg/m3}
  1465.45,                                !- Specific Heat {J/kg-K}
  0.9,                                    !- Thermal Absorptance
  0.85,                                   !- Solar Absorptance
  0.85;                                   !- Visible Absorptance

OS:Material,
  {c274fcc6-44aa-41f6-9bc1-f1133a4cd037}, !- Handle
  roof rigid ins,                         !- Name
  Rough,                                  !- Roughness
  0.0028163194147757,                     !- Thickness {m}
  0.029427,                               !- Conductivity {W/m-K}
  32.04,                                  !- Density {kg/m3}
  1214.23,                                !- Specific Heat {J/kg-K}
  0.9,                                    !- Thermal Absorptance
  0.7,                                    !- Solar Absorptance
  0.7;                                    !- Visible Absorptance

OS:Material,
  {22f6679b-380a-42da-b7ae-5dfc73fb83c8}, !- Handle
  osb sheathing 0.5 in.,                  !- Name
  Rough,                                  !- Roughness
  0.0127,                                 !- Thickness {m}
  0.1154577,                              !- Conductivity {W/m-K}
  512.64,                                 !- Density {kg/m3}
  1214.23,                                !- Specific Heat {J/kg-K}
  0.9,                                    !- Thermal Absorptance
  0.6,                                    !- Solar Absorptance
  0.6;                                    !- Visible Absorptance

OS:Construction,
  {10b3ea87-c321-4746-a696-174c6af1c39b}, !- Handle
  Roof1 construction,                     !- Name
  ,                                       !- Surface Rendering Name
  {61b58d4a-68bb-4c9b-bf51-e4f917cfeff9}, !- Layer 1
  {c274fcc6-44aa-41f6-9bc1-f1133a4cd037}, !- Layer 2
  {22f6679b-380a-42da-b7ae-5dfc73fb83c8}; !- Layer 3

OS:Surface,
  {fe2e6cad-c8a8-4b7c-adcd-55f28631ab1a}, !- Handle
  Roof2,                                  !- Name